* NGSPICE file created from ram_16B.ext - technology: gf180mcuC

* Black-box entry subcircuit for gf180mcu_fd_sc_mcu7t5v0__fill_1 abstract view
.subckt gf180mcu_fd_sc_mcu7t5v0__fill_1 VDD VSS
.ends

* Black-box entry subcircuit for gf180mcu_fd_sc_mcu7t5v0__fillcap_4 abstract view
.subckt gf180mcu_fd_sc_mcu7t5v0__fillcap_4 VDD VSS
.ends

* Black-box entry subcircuit for gf180mcu_fd_sc_mcu7t5v0__fillcap_16 abstract view
.subckt gf180mcu_fd_sc_mcu7t5v0__fillcap_16 VDD VSS
.ends

* Black-box entry subcircuit for gf180mcu_fd_sc_mcu7t5v0__fillcap_64 abstract view
.subckt gf180mcu_fd_sc_mcu7t5v0__fillcap_64 VDD VSS
.ends

* Black-box entry subcircuit for gf180mcu_fd_sc_mcu7t5v0__fill_2 abstract view
.subckt gf180mcu_fd_sc_mcu7t5v0__fill_2 VDD VSS
.ends

* Black-box entry subcircuit for gf180mcu_fd_sc_mcu7t5v0__antenna abstract view
.subckt gf180mcu_fd_sc_mcu7t5v0__antenna I VDD VSS
.ends

* Black-box entry subcircuit for gf180mcu_fd_sc_mcu7t5v0__fillcap_8 abstract view
.subckt gf180mcu_fd_sc_mcu7t5v0__fillcap_8 VDD VSS
.ends

* Black-box entry subcircuit for gf180mcu_fd_sc_mcu7t5v0__clkbuf_2 abstract view
.subckt gf180mcu_fd_sc_mcu7t5v0__clkbuf_2 I Z VDD VSS
.ends

* Black-box entry subcircuit for gf180mcu_fd_sc_mcu7t5v0__fillcap_32 abstract view
.subckt gf180mcu_fd_sc_mcu7t5v0__fillcap_32 VDD VSS
.ends

* Black-box entry subcircuit for gf180mcu_fd_sc_mcu7t5v0__mux2_2 abstract view
.subckt gf180mcu_fd_sc_mcu7t5v0__mux2_2 I0 I1 S Z VDD VSS
.ends

* Black-box entry subcircuit for gf180mcu_fd_sc_mcu7t5v0__nand2_1 abstract view
.subckt gf180mcu_fd_sc_mcu7t5v0__nand2_1 A1 A2 ZN VDD VSS
.ends

* Black-box entry subcircuit for gf180mcu_fd_sc_mcu7t5v0__filltie abstract view
.subckt gf180mcu_fd_sc_mcu7t5v0__filltie VDD VSS
.ends

* Black-box entry subcircuit for gf180mcu_fd_sc_mcu7t5v0__clkbuf_1 abstract view
.subckt gf180mcu_fd_sc_mcu7t5v0__clkbuf_1 I Z VDD VSS
.ends

* Black-box entry subcircuit for gf180mcu_fd_sc_mcu7t5v0__mux4_1 abstract view
.subckt gf180mcu_fd_sc_mcu7t5v0__mux4_1 I0 I1 I2 I3 S0 S1 Z VDD VSS
.ends

* Black-box entry subcircuit for gf180mcu_fd_sc_mcu7t5v0__dffq_1 abstract view
.subckt gf180mcu_fd_sc_mcu7t5v0__dffq_1 D CLK Q VDD VSS
.ends

* Black-box entry subcircuit for gf180mcu_fd_sc_mcu7t5v0__clkbuf_3 abstract view
.subckt gf180mcu_fd_sc_mcu7t5v0__clkbuf_3 I Z VDD VSS
.ends

* Black-box entry subcircuit for gf180mcu_fd_sc_mcu7t5v0__endcap abstract view
.subckt gf180mcu_fd_sc_mcu7t5v0__endcap VDD VSS
.ends

* Black-box entry subcircuit for gf180mcu_fd_sc_mcu7t5v0__buf_1 abstract view
.subckt gf180mcu_fd_sc_mcu7t5v0__buf_1 I Z VDD VSS
.ends

* Black-box entry subcircuit for gf180mcu_fd_sc_mcu7t5v0__and4_1 abstract view
.subckt gf180mcu_fd_sc_mcu7t5v0__and4_1 A1 A2 A3 A4 Z VDD VSS
.ends

* Black-box entry subcircuit for gf180mcu_fd_sc_mcu7t5v0__nor2_1 abstract view
.subckt gf180mcu_fd_sc_mcu7t5v0__nor2_1 A1 A2 ZN VDD VSS
.ends

* Black-box entry subcircuit for gf180mcu_fd_sc_mcu7t5v0__clkbuf_16 abstract view
.subckt gf180mcu_fd_sc_mcu7t5v0__clkbuf_16 I Z VDD VSS
.ends

* Black-box entry subcircuit for gf180mcu_fd_sc_mcu7t5v0__aoi21_1 abstract view
.subckt gf180mcu_fd_sc_mcu7t5v0__aoi21_1 A1 A2 B ZN VDD VSS
.ends

* Black-box entry subcircuit for gf180mcu_fd_sc_mcu7t5v0__or4_1 abstract view
.subckt gf180mcu_fd_sc_mcu7t5v0__or4_1 A1 A2 A3 A4 Z VDD VSS
.ends

* Black-box entry subcircuit for gf180mcu_fd_sc_mcu7t5v0__aoi22_1 abstract view
.subckt gf180mcu_fd_sc_mcu7t5v0__aoi22_1 A1 A2 B1 B2 ZN VDD VSS
.ends

* Black-box entry subcircuit for gf180mcu_fd_sc_mcu7t5v0__clkinv_1 abstract view
.subckt gf180mcu_fd_sc_mcu7t5v0__clkinv_1 I ZN VDD VSS
.ends

* Black-box entry subcircuit for gf180mcu_fd_sc_mcu7t5v0__nand4_1 abstract view
.subckt gf180mcu_fd_sc_mcu7t5v0__nand4_1 A1 A2 A3 A4 ZN VDD VSS
.ends

* Black-box entry subcircuit for gf180mcu_fd_sc_mcu7t5v0__nor4_4 abstract view
.subckt gf180mcu_fd_sc_mcu7t5v0__nor4_4 A1 A2 A3 A4 ZN VDD VSS
.ends

* Black-box entry subcircuit for gf180mcu_fd_sc_mcu7t5v0__buf_2 abstract view
.subckt gf180mcu_fd_sc_mcu7t5v0__buf_2 I Z VDD VSS
.ends

* Black-box entry subcircuit for gf180mcu_fd_sc_mcu7t5v0__nand2_2 abstract view
.subckt gf180mcu_fd_sc_mcu7t5v0__nand2_2 A1 A2 ZN VDD VSS
.ends

* Black-box entry subcircuit for gf180mcu_fd_sc_mcu7t5v0__nand3_1 abstract view
.subckt gf180mcu_fd_sc_mcu7t5v0__nand3_1 A1 A2 A3 ZN VDD VSS
.ends

* Black-box entry subcircuit for gf180mcu_fd_sc_mcu7t5v0__nand4_2 abstract view
.subckt gf180mcu_fd_sc_mcu7t5v0__nand4_2 A1 A2 A3 A4 ZN VDD VSS
.ends

* Black-box entry subcircuit for gf180mcu_fd_sc_mcu7t5v0__and2_1 abstract view
.subckt gf180mcu_fd_sc_mcu7t5v0__and2_1 A1 A2 Z VDD VSS
.ends

* Black-box entry subcircuit for gf180mcu_fd_sc_mcu7t5v0__dlyb_1 abstract view
.subckt gf180mcu_fd_sc_mcu7t5v0__dlyb_1 I Z VDD VSS
.ends

* Black-box entry subcircuit for gf180mcu_fd_sc_mcu7t5v0__nor3_2 abstract view
.subckt gf180mcu_fd_sc_mcu7t5v0__nor3_2 A1 A2 A3 ZN VDD VSS
.ends

* Black-box entry subcircuit for gf180mcu_fd_sc_mcu7t5v0__nor2_2 abstract view
.subckt gf180mcu_fd_sc_mcu7t5v0__nor2_2 A1 A2 ZN VDD VSS
.ends

* Black-box entry subcircuit for gf180mcu_fd_sc_mcu7t5v0__inv_1 abstract view
.subckt gf180mcu_fd_sc_mcu7t5v0__inv_1 I ZN VDD VSS
.ends

* Black-box entry subcircuit for gf180mcu_fd_sc_mcu7t5v0__clkinv_2 abstract view
.subckt gf180mcu_fd_sc_mcu7t5v0__clkinv_2 I ZN VDD VSS
.ends

* Black-box entry subcircuit for gf180mcu_fd_sc_mcu7t5v0__nor3_1 abstract view
.subckt gf180mcu_fd_sc_mcu7t5v0__nor3_1 A1 A2 A3 ZN VDD VSS
.ends

* Black-box entry subcircuit for gf180mcu_fd_sc_mcu7t5v0__or2_1 abstract view
.subckt gf180mcu_fd_sc_mcu7t5v0__or2_1 A1 A2 Z VDD VSS
.ends

.subckt ram_16B address[0] address[1] address[2] address[3] clk data_in[0] data_in[1]
+ data_in[2] data_in[3] data_in[4] data_in[5] data_in[6] data_in[7] data_out[0] data_out[1]
+ data_out[2] data_out[3] data_out[4] data_out[5] data_out[6] data_out[7] rd_wr vdd
+ vss
XFILLER_95_851 vdd vss gf180mcu_fd_sc_mcu7t5v0__fill_1
XFILLER_95_862 vdd vss gf180mcu_fd_sc_mcu7t5v0__fillcap_4
XFILLER_55_726 vdd vss gf180mcu_fd_sc_mcu7t5v0__fillcap_16
XFILLER_82_534 vdd vss gf180mcu_fd_sc_mcu7t5v0__fill_1
XFILLER_27_428 vdd vss gf180mcu_fd_sc_mcu7t5v0__fillcap_64
XFILLER_54_247 vdd vss gf180mcu_fd_sc_mcu7t5v0__fill_1
XFILLER_70_718 vdd vss gf180mcu_fd_sc_mcu7t5v0__fill_2
XANTENNA__1454__A1 _0353_ vdd vss gf180mcu_fd_sc_mcu7t5v0__antenna
XFILLER_23_634 vdd vss gf180mcu_fd_sc_mcu7t5v0__fillcap_4
XFILLER_117_783 vdd vss gf180mcu_fd_sc_mcu7t5v0__fillcap_64
XFILLER_2_527 vdd vss gf180mcu_fd_sc_mcu7t5v0__fillcap_4
XFILLER_117_66 vdd vss gf180mcu_fd_sc_mcu7t5v0__fillcap_4
XFILLER_89_144 vdd vss gf180mcu_fd_sc_mcu7t5v0__fillcap_64
XFILLER_78_818 vdd vss gf180mcu_fd_sc_mcu7t5v0__fillcap_4
XFILLER_86_851 vdd vss gf180mcu_fd_sc_mcu7t5v0__fillcap_8
XFILLER_58_531 vdd vss gf180mcu_fd_sc_mcu7t5v0__fill_1
XFILLER_85_350 vdd vss gf180mcu_fd_sc_mcu7t5v0__fillcap_4
XFILLER_73_534 vdd vss gf180mcu_fd_sc_mcu7t5v0__fill_1
XFILLER_73_567 vdd vss gf180mcu_fd_sc_mcu7t5v0__fill_1
XFILLER_61_718 vdd vss gf180mcu_fd_sc_mcu7t5v0__fill_2
XANTENNA__1724__CLK clknet_leaf_33_clk vdd vss gf180mcu_fd_sc_mcu7t5v0__antenna
XFILLER_13_144 vdd vss gf180mcu_fd_sc_mcu7t5v0__fillcap_64
XFILLER_9_137 vdd vss gf180mcu_fd_sc_mcu7t5v0__fillcap_4
XFILLER_6_811 vdd vss gf180mcu_fd_sc_mcu7t5v0__fillcap_4
XANTENNA__1874__CLK clknet_leaf_51_clk vdd vss gf180mcu_fd_sc_mcu7t5v0__antenna
XFILLER_115_709 vdd vss gf180mcu_fd_sc_mcu7t5v0__fill_1
XFILLER_5_354 vdd vss gf180mcu_fd_sc_mcu7t5v0__fill_1
X_1270_ _0799_ _0815_ vdd vss gf180mcu_fd_sc_mcu7t5v0__clkbuf_2
XFILLER_77_851 vdd vss gf180mcu_fd_sc_mcu7t5v0__fill_1
XFILLER_77_862 vdd vss gf180mcu_fd_sc_mcu7t5v0__fillcap_4
XFILLER_67_70 vdd vss gf180mcu_fd_sc_mcu7t5v0__fill_1
XFILLER_64_534 vdd vss gf180mcu_fd_sc_mcu7t5v0__fill_1
XFILLER_64_523 vdd vss gf180mcu_fd_sc_mcu7t5v0__fill_2
XFILLER_92_865 vdd vss gf180mcu_fd_sc_mcu7t5v0__fill_1
XFILLER_36_247 vdd vss gf180mcu_fd_sc_mcu7t5v0__fill_1
XFILLER_60_751 vdd vss gf180mcu_fd_sc_mcu7t5v0__fill_2
XFILLER_80_2 vdd vss gf180mcu_fd_sc_mcu7t5v0__fillcap_32
X_0985_ ram16\[0\].rb.ram1\[2\].rc.rd ram16\[0\].rb.ram1\[2\].rc.mem _0621_ _0626_
+ vdd vss gf180mcu_fd_sc_mcu7t5v0__mux2_2
XFILLER_105_208 vdd vss gf180mcu_fd_sc_mcu7t5v0__fillcap_4
X_1606_ ram16\[14\].rb.ram1\[2\].rc.mem _0448_ _0452_ vdd vss gf180mcu_fd_sc_mcu7t5v0__nand2_1
X_1537_ ram16\[13\].rb.ram1\[7\].rc.mem _0403_ _0406_ vdd vss gf180mcu_fd_sc_mcu7t5v0__nand2_1
XFILLER_101_425 vdd vss gf180mcu_fd_sc_mcu7t5v0__fill_1
X_1468_ ram16\[11\].rb.ram1\[5\].rc.mem ram16\[11\].rb.ram1\[5\].rc.rd _0363_ _0365_
+ vdd vss gf180mcu_fd_sc_mcu7t5v0__mux2_2
X_1399_ ram16\[9\].rb.ram1\[0\].rc.mem _0310_ _0321_ vdd vss gf180mcu_fd_sc_mcu7t5v0__nand2_1
XFILLER_67_350 vdd vss gf180mcu_fd_sc_mcu7t5v0__fillcap_4
XANTENNA__1747__CLK clknet_leaf_43_clk vdd vss gf180mcu_fd_sc_mcu7t5v0__antenna
XFILLER_83_854 vdd vss gf180mcu_fd_sc_mcu7t5v0__fillcap_8
XTAP_1129 vdd vss gf180mcu_fd_sc_mcu7t5v0__filltie
XFILLER_36_781 vdd vss gf180mcu_fd_sc_mcu7t5v0__fill_2
XTAP_1107 vdd vss gf180mcu_fd_sc_mcu7t5v0__filltie
XTAP_1118 vdd vss gf180mcu_fd_sc_mcu7t5v0__filltie
XANTENNA__1299__I _0821_ vdd vss gf180mcu_fd_sc_mcu7t5v0__antenna
XANTENNA__1897__CLK clknet_leaf_20_clk vdd vss gf180mcu_fd_sc_mcu7t5v0__antenna
XFILLER_50_250 vdd vss gf180mcu_fd_sc_mcu7t5v0__fillcap_64
XANTENNA__0931__I _0584_ vdd vss gf180mcu_fd_sc_mcu7t5v0__antenna
XFILLER_109_547 vdd vss gf180mcu_fd_sc_mcu7t5v0__fill_2
XFILLER_3_847 vdd vss gf180mcu_fd_sc_mcu7t5v0__fillcap_4
XFILLER_105_742 vdd vss gf180mcu_fd_sc_mcu7t5v0__fill_2
XFILLER_105_786 vdd vss gf180mcu_fd_sc_mcu7t5v0__fillcap_8
XANTENNA__0961__I0 _0610_ vdd vss gf180mcu_fd_sc_mcu7t5v0__antenna
XFILLER_59_851 vdd vss gf180mcu_fd_sc_mcu7t5v0__fill_1
XFILLER_74_821 vdd vss gf180mcu_fd_sc_mcu7t5v0__fillcap_4
XFILLER_46_512 vdd vss gf180mcu_fd_sc_mcu7t5v0__fillcap_4
XFILLER_46_534 vdd vss gf180mcu_fd_sc_mcu7t5v0__fill_1
XFILLER_74_854 vdd vss gf180mcu_fd_sc_mcu7t5v0__fillcap_8
XFILLER_18_247 vdd vss gf180mcu_fd_sc_mcu7t5v0__fill_1
XFILLER_37_73 vdd vss gf180mcu_fd_sc_mcu7t5v0__fillcap_64
XANTENNA__1203__S _0773_ vdd vss gf180mcu_fd_sc_mcu7t5v0__antenna
XTAP_1641 vdd vss gf180mcu_fd_sc_mcu7t5v0__filltie
XTAP_1630 vdd vss gf180mcu_fd_sc_mcu7t5v0__filltie
XFILLER_61_548 vdd vss gf180mcu_fd_sc_mcu7t5v0__fill_2
XTAP_1685 vdd vss gf180mcu_fd_sc_mcu7t5v0__filltie
XTAP_1674 vdd vss gf180mcu_fd_sc_mcu7t5v0__filltie
XTAP_1663 vdd vss gf180mcu_fd_sc_mcu7t5v0__filltie
XTAP_1652 vdd vss gf180mcu_fd_sc_mcu7t5v0__filltie
XFILLER_41_283 vdd vss gf180mcu_fd_sc_mcu7t5v0__fill_1
XANTENNA__0841__I net2 vdd vss gf180mcu_fd_sc_mcu7t5v0__antenna
XFILLER_111_712 vdd vss gf180mcu_fd_sc_mcu7t5v0__fillcap_64
XFILLER_69_604 vdd vss gf180mcu_fd_sc_mcu7t5v0__fillcap_4
X_1322_ ram16\[8\].rb.ram1\[7\].rc.rd ram16\[8\].rb.ram1\[7\].rc.mem _0269_ _0271_
+ vdd vss gf180mcu_fd_sc_mcu7t5v0__mux2_2
X_1253_ ram16\[6\].rb.ram1\[4\].rc.mem _0779_ _0805_ _0806_ vdd vss gf180mcu_fd_sc_mcu7t5v0__mux2_2
XFILLER_49_350 vdd vss gf180mcu_fd_sc_mcu7t5v0__fillcap_4
XFILLER_37_523 vdd vss gf180mcu_fd_sc_mcu7t5v0__fillcap_4
XFILLER_80_802 vdd vss gf180mcu_fd_sc_mcu7t5v0__fill_2
XFILLER_37_556 vdd vss gf180mcu_fd_sc_mcu7t5v0__fillcap_8
XFILLER_65_854 vdd vss gf180mcu_fd_sc_mcu7t5v0__fillcap_8
X_1184_ _0737_ _0762_ vdd vss gf180mcu_fd_sc_mcu7t5v0__clkbuf_1
XANTENNA__1409__A1 _0692_ vdd vss gf180mcu_fd_sc_mcu7t5v0__antenna
XFILLER_32_250 vdd vss gf180mcu_fd_sc_mcu7t5v0__fillcap_64
XFILLER_20_456 vdd vss gf180mcu_fd_sc_mcu7t5v0__fillcap_4
X_0968_ _0615_ _0004_ vdd vss gf180mcu_fd_sc_mcu7t5v0__clkbuf_1
X_0899_ ram16\[2\].rb.ram1\[4\].rc.rd ram16\[3\].rb.ram1\[4\].rc.rd ram16\[10\].rb.ram1\[4\].rc.rd
+ ram16\[11\].rb.ram1\[4\].rc.rd _0546_ _0522_ _0556_ vdd vss gf180mcu_fd_sc_mcu7t5v0__mux4_1
XFILLER_99_283 vdd vss gf180mcu_fd_sc_mcu7t5v0__fill_1
XFILLER_0_839 vdd vss gf180mcu_fd_sc_mcu7t5v0__fill_1
XFILLER_114_34 vdd vss gf180mcu_fd_sc_mcu7t5v0__fill_1
XFILLER_102_789 vdd vss gf180mcu_fd_sc_mcu7t5v0__fillcap_4
XANTENNA__0943__I0 ram16\[0\].rb.ram1\[0\].rc.rd vdd vss gf180mcu_fd_sc_mcu7t5v0__antenna
XFILLER_56_832 vdd vss gf180mcu_fd_sc_mcu7t5v0__fill_2
XANTENNA__1648__A1 _0620_ vdd vss gf180mcu_fd_sc_mcu7t5v0__antenna
XFILLER_28_534 vdd vss gf180mcu_fd_sc_mcu7t5v0__fillcap_64
XFILLER_56_854 vdd vss gf180mcu_fd_sc_mcu7t5v0__fill_2
XANTENNA__1023__S _0649_ vdd vss gf180mcu_fd_sc_mcu7t5v0__antenna
XFILLER_71_824 vdd vss gf180mcu_fd_sc_mcu7t5v0__fillcap_4
XFILLER_82_172 vdd vss gf180mcu_fd_sc_mcu7t5v0__fillcap_4
XFILLER_24_740 vdd vss gf180mcu_fd_sc_mcu7t5v0__fillcap_4
XFILLER_43_548 vdd vss gf180mcu_fd_sc_mcu7t5v0__fillcap_4
XFILLER_71_846 vdd vss gf180mcu_fd_sc_mcu7t5v0__fill_2
XFILLER_71_857 vdd vss gf180mcu_fd_sc_mcu7t5v0__fillcap_8
XFILLER_90_37 vdd vss gf180mcu_fd_sc_mcu7t5v0__fillcap_64
XFILLER_23_283 vdd vss gf180mcu_fd_sc_mcu7t5v0__fill_1
XFILLER_51_570 vdd vss gf180mcu_fd_sc_mcu7t5v0__fill_1
XFILLER_70_389 vdd vss gf180mcu_fd_sc_mcu7t5v0__fill_1
XANTENNA__1912__CLK clknet_leaf_21_clk vdd vss gf180mcu_fd_sc_mcu7t5v0__antenna
XFILLER_2_176 vdd vss gf180mcu_fd_sc_mcu7t5v0__fill_1
XFILLER_74_640 vdd vss gf180mcu_fd_sc_mcu7t5v0__fill_2
XFILLER_47_854 vdd vss gf180mcu_fd_sc_mcu7t5v0__fill_1
XFILLER_47_865 vdd vss gf180mcu_fd_sc_mcu7t5v0__fill_1
XFILLER_74_673 vdd vss gf180mcu_fd_sc_mcu7t5v0__fill_1
XANTENNA__0836__I net4 vdd vss gf180mcu_fd_sc_mcu7t5v0__antenna
XFILLER_19_567 vdd vss gf180mcu_fd_sc_mcu7t5v0__fill_1
XFILLER_0_68 vdd vss gf180mcu_fd_sc_mcu7t5v0__fill_2
XFILLER_62_824 vdd vss gf180mcu_fd_sc_mcu7t5v0__fill_2
XFILLER_74_695 vdd vss gf180mcu_fd_sc_mcu7t5v0__fill_2
XTAP_1460 vdd vss gf180mcu_fd_sc_mcu7t5v0__filltie
XTAP_1493 vdd vss gf180mcu_fd_sc_mcu7t5v0__filltie
XTAP_1482 vdd vss gf180mcu_fd_sc_mcu7t5v0__filltie
XTAP_1471 vdd vss gf180mcu_fd_sc_mcu7t5v0__filltie
XFILLER_14_250 vdd vss gf180mcu_fd_sc_mcu7t5v0__fillcap_64
XFILLER_9_66 vdd vss gf180mcu_fd_sc_mcu7t5v0__fillcap_4
X_1871_ _0201_ clknet_leaf_51_clk ram16\[12\].rb.ram1\[1\].rc.mem vdd vss gf180mcu_fd_sc_mcu7t5v0__dffq_1
XFILLER_116_815 vdd vss gf180mcu_fd_sc_mcu7t5v0__fill_1
XFILLER_6_460 vdd vss gf180mcu_fd_sc_mcu7t5v0__fill_1
XFILLER_43_2 vdd vss gf180mcu_fd_sc_mcu7t5v0__fill_1
X_1305_ _0260_ _0121_ vdd vss gf180mcu_fd_sc_mcu7t5v0__clkbuf_1
XFILLER_69_456 vdd vss gf180mcu_fd_sc_mcu7t5v0__fillcap_4
XANTENNA__0925__I0 ram16\[2\].rb.ram1\[2\].rc.rd vdd vss gf180mcu_fd_sc_mcu7t5v0__antenna
XFILLER_57_629 vdd vss gf180mcu_fd_sc_mcu7t5v0__fill_2
X_1236_ ram16\[5\].rb.ram1\[1\].rc.mem ram16\[5\].rb.ram1\[1\].rc.rd _0794_ _0796_
+ vdd vss gf180mcu_fd_sc_mcu7t5v0__mux2_2
X_1167_ ram16\[4\].rb.ram1\[5\].rc.rd _0747_ _0751_ vdd vss gf180mcu_fd_sc_mcu7t5v0__nand2_1
XFILLER_80_643 vdd vss gf180mcu_fd_sc_mcu7t5v0__fill_2
XFILLER_64_172 vdd vss gf180mcu_fd_sc_mcu7t5v0__fillcap_4
XFILLER_80_676 vdd vss gf180mcu_fd_sc_mcu7t5v0__fill_1
XFILLER_80_687 vdd vss gf180mcu_fd_sc_mcu7t5v0__fill_1
X_1098_ ram16\[3\].rb.ram1\[7\].rc.rd _0696_ _0702_ vdd vss gf180mcu_fd_sc_mcu7t5v0__nand2_1
XFILLER_33_570 vdd vss gf180mcu_fd_sc_mcu7t5v0__fillcap_64
XFILLER_52_389 vdd vss gf180mcu_fd_sc_mcu7t5v0__fill_1
XANTENNA_clkbuf_leaf_22_clk_I clknet_2_3__leaf_clk vdd vss gf180mcu_fd_sc_mcu7t5v0__antenna
XFILLER_21_776 vdd vss gf180mcu_fd_sc_mcu7t5v0__fillcap_4
XFILLER_106_314 vdd vss gf180mcu_fd_sc_mcu7t5v0__fillcap_4
XFILLER_118_196 vdd vss gf180mcu_fd_sc_mcu7t5v0__fillcap_8
XFILLER_102_531 vdd vss gf180mcu_fd_sc_mcu7t5v0__fill_1
XFILLER_48_618 vdd vss gf180mcu_fd_sc_mcu7t5v0__fill_2
XFILLER_87_286 vdd vss gf180mcu_fd_sc_mcu7t5v0__fillcap_64
XFILLER_29_854 vdd vss gf180mcu_fd_sc_mcu7t5v0__fillcap_8
XFILLER_83_470 vdd vss gf180mcu_fd_sc_mcu7t5v0__fill_1
XFILLER_56_673 vdd vss gf180mcu_fd_sc_mcu7t5v0__fill_1
XFILLER_71_698 vdd vss gf180mcu_fd_sc_mcu7t5v0__fill_2
XFILLER_8_747 vdd vss gf180mcu_fd_sc_mcu7t5v0__fillcap_64
XFILLER_109_141 vdd vss gf180mcu_fd_sc_mcu7t5v0__fill_1
XFILLER_11_286 vdd vss gf180mcu_fd_sc_mcu7t5v0__fillcap_64
XFILLER_7_279 vdd vss gf180mcu_fd_sc_mcu7t5v0__fillcap_4
XTAP_507 vdd vss gf180mcu_fd_sc_mcu7t5v0__filltie
XTAP_529 vdd vss gf180mcu_fd_sc_mcu7t5v0__filltie
XTAP_518 vdd vss gf180mcu_fd_sc_mcu7t5v0__filltie
XFILLER_3_496 vdd vss gf180mcu_fd_sc_mcu7t5v0__fill_1
XFILLER_79_765 vdd vss gf180mcu_fd_sc_mcu7t5v0__fill_2
XFILLER_94_724 vdd vss gf180mcu_fd_sc_mcu7t5v0__fillcap_4
XFILLER_93_212 vdd vss gf180mcu_fd_sc_mcu7t5v0__fill_1
XFILLER_66_459 vdd vss gf180mcu_fd_sc_mcu7t5v0__fill_2
XANTENNA__1808__CLK clknet_leaf_50_clk vdd vss gf180mcu_fd_sc_mcu7t5v0__antenna
X_1021_ _0648_ ram16\[1\].rb.ram1\[2\].rc.mem _0649_ _0650_ vdd vss gf180mcu_fd_sc_mcu7t5v0__mux2_2
XFILLER_46_172 vdd vss gf180mcu_fd_sc_mcu7t5v0__fillcap_4
XFILLER_62_676 vdd vss gf180mcu_fd_sc_mcu7t5v0__fill_1
XFILLER_15_570 vdd vss gf180mcu_fd_sc_mcu7t5v0__fillcap_64
XFILLER_34_389 vdd vss gf180mcu_fd_sc_mcu7t5v0__fill_1
X_1923_ _0253_ clknet_leaf_13_clk ram16\[14\].rb.ram1\[7\].rc.mem vdd vss gf180mcu_fd_sc_mcu7t5v0__dffq_1
XTAP_1290 vdd vss gf180mcu_fd_sc_mcu7t5v0__filltie
X_1854_ _0184_ clknet_leaf_15_clk ram16\[11\].rb.ram1\[3\].rc.rd vdd vss gf180mcu_fd_sc_mcu7t5v0__dffq_1
X_1785_ _0115_ clknet_leaf_22_clk ram16\[7\].rb.ram1\[4\].rc.mem vdd vss gf180mcu_fd_sc_mcu7t5v0__dffq_1
XFILLER_7_780 vdd vss gf180mcu_fd_sc_mcu7t5v0__fill_1
XFILLER_115_144 vdd vss gf180mcu_fd_sc_mcu7t5v0__fillcap_64
XFILLER_104_829 vdd vss gf180mcu_fd_sc_mcu7t5v0__fill_1
XFILLER_104_818 vdd vss gf180mcu_fd_sc_mcu7t5v0__fill_1
XFILLER_89_529 vdd vss gf180mcu_fd_sc_mcu7t5v0__fill_2
XFILLER_89_518 vdd vss gf180mcu_fd_sc_mcu7t5v0__fill_1
XFILLER_97_540 vdd vss gf180mcu_fd_sc_mcu7t5v0__fillcap_4
XFILLER_111_350 vdd vss gf180mcu_fd_sc_mcu7t5v0__fillcap_4
XFILLER_69_286 vdd vss gf180mcu_fd_sc_mcu7t5v0__fillcap_64
XFILLER_85_768 vdd vss gf180mcu_fd_sc_mcu7t5v0__fill_2
X_1219_ ram16\[5\].rb.ram1\[4\].rc.mem ram16\[5\].rb.ram1\[4\].rc.rd _0780_ _0785_
+ vdd vss gf180mcu_fd_sc_mcu7t5v0__mux2_2
XFILLER_38_662 vdd vss gf180mcu_fd_sc_mcu7t5v0__fill_1
XFILLER_38_673 vdd vss gf180mcu_fd_sc_mcu7t5v0__fill_1
XFILLER_65_481 vdd vss gf180mcu_fd_sc_mcu7t5v0__fill_2
XFILLER_0_422 vdd vss gf180mcu_fd_sc_mcu7t5v0__fillcap_32
XFILLER_103_862 vdd vss gf180mcu_fd_sc_mcu7t5v0__fillcap_4
XFILLER_103_851 vdd vss gf180mcu_fd_sc_mcu7t5v0__fill_1
XFILLER_88_573 vdd vss gf180mcu_fd_sc_mcu7t5v0__fill_2
XFILLER_75_212 vdd vss gf180mcu_fd_sc_mcu7t5v0__fill_1
XFILLER_0_499 vdd vss gf180mcu_fd_sc_mcu7t5v0__fillcap_16
XFILLER_28_172 vdd vss gf180mcu_fd_sc_mcu7t5v0__fillcap_4
XFILLER_45_73 vdd vss gf180mcu_fd_sc_mcu7t5v0__fillcap_64
XFILLER_44_676 vdd vss gf180mcu_fd_sc_mcu7t5v0__fill_1
XFILLER_16_389 vdd vss gf180mcu_fd_sc_mcu7t5v0__fill_1
XFILLER_71_462 vdd vss gf180mcu_fd_sc_mcu7t5v0__fillcap_4
XANTENNA__1242__A2 _0501_ vdd vss gf180mcu_fd_sc_mcu7t5v0__antenna
XFILLER_6_34 vdd vss gf180mcu_fd_sc_mcu7t5v0__fill_1
X_1570_ _0426_ _0427_ _0219_ vdd vss gf180mcu_fd_sc_mcu7t5v0__nand2_1
XTAP_304 vdd vss gf180mcu_fd_sc_mcu7t5v0__filltie
XTAP_315 vdd vss gf180mcu_fd_sc_mcu7t5v0__filltie
XFILLER_79_551 vdd vss gf180mcu_fd_sc_mcu7t5v0__fill_2
XTAP_337 vdd vss gf180mcu_fd_sc_mcu7t5v0__filltie
XTAP_348 vdd vss gf180mcu_fd_sc_mcu7t5v0__filltie
XTAP_326 vdd vss gf180mcu_fd_sc_mcu7t5v0__filltie
XTAP_359 vdd vss gf180mcu_fd_sc_mcu7t5v0__filltie
XFILLER_39_448 vdd vss gf180mcu_fd_sc_mcu7t5v0__fill_2
XFILLER_82_727 vdd vss gf180mcu_fd_sc_mcu7t5v0__fill_2
XFILLER_82_738 vdd vss gf180mcu_fd_sc_mcu7t5v0__fill_2
XFILLER_81_215 vdd vss gf180mcu_fd_sc_mcu7t5v0__fillcap_64
XANTENNA__1780__CLK clknet_leaf_12_clk vdd vss gf180mcu_fd_sc_mcu7t5v0__antenna
X_1004_ _0638_ ram16\[1\].rb.ram1\[5\].rc.mem _0635_ _0639_ vdd vss gf180mcu_fd_sc_mcu7t5v0__mux2_2
XFILLER_50_602 vdd vss gf180mcu_fd_sc_mcu7t5v0__fill_1
X_1906_ _0236_ clknet_leaf_9_clk ram16\[14\].rb.ram1\[1\].rc.rd vdd vss gf180mcu_fd_sc_mcu7t5v0__dffq_1
XFILLER_30_392 vdd vss gf180mcu_fd_sc_mcu7t5v0__fillcap_64
X_1837_ _0167_ clknet_leaf_3_clk ram16\[10\].rb.ram1\[2\].rc.mem vdd vss gf180mcu_fd_sc_mcu7t5v0__dffq_1
X_1768_ _0098_ clknet_leaf_24_clk ram16\[6\].rb.ram1\[6\].rc.rd vdd vss gf180mcu_fd_sc_mcu7t5v0__dffq_1
X_1699_ _0029_ clknet_leaf_18_clk ram16\[15\].rb.ram1\[7\].rc.mem vdd vss gf180mcu_fd_sc_mcu7t5v0__dffq_1
XFILLER_1_208 vdd vss gf180mcu_fd_sc_mcu7t5v0__fillcap_4
XFILLER_100_810 vdd vss gf180mcu_fd_sc_mcu7t5v0__fill_2
XANTENNA__1590__I _0431_ vdd vss gf180mcu_fd_sc_mcu7t5v0__antenna
XTAP_860 vdd vss gf180mcu_fd_sc_mcu7t5v0__filltie
XTAP_871 vdd vss gf180mcu_fd_sc_mcu7t5v0__filltie
XTAP_893 vdd vss gf180mcu_fd_sc_mcu7t5v0__filltie
XTAP_882 vdd vss gf180mcu_fd_sc_mcu7t5v0__filltie
XFILLER_57_212 vdd vss gf180mcu_fd_sc_mcu7t5v0__fill_1
XFILLER_100_865 vdd vss gf180mcu_fd_sc_mcu7t5v0__fill_1
XFILLER_85_576 vdd vss gf180mcu_fd_sc_mcu7t5v0__fill_1
XFILLER_38_470 vdd vss gf180mcu_fd_sc_mcu7t5v0__fill_2
XFILLER_26_676 vdd vss gf180mcu_fd_sc_mcu7t5v0__fillcap_64
XFILLER_40_101 vdd vss gf180mcu_fd_sc_mcu7t5v0__fillcap_4
XFILLER_53_462 vdd vss gf180mcu_fd_sc_mcu7t5v0__fill_2
XFILLER_41_635 vdd vss gf180mcu_fd_sc_mcu7t5v0__fill_1
XFILLER_53_495 vdd vss gf180mcu_fd_sc_mcu7t5v0__fill_2
XFILLER_41_668 vdd vss gf180mcu_fd_sc_mcu7t5v0__fill_2
XFILLER_110_2 vdd vss gf180mcu_fd_sc_mcu7t5v0__fillcap_32
Xoutput20 net20 data_out[6] vdd vss gf180mcu_fd_sc_mcu7t5v0__clkbuf_3
XFILLER_0_263 vdd vss gf180mcu_fd_sc_mcu7t5v0__fill_1
XANTENNA__1206__S _0773_ vdd vss gf180mcu_fd_sc_mcu7t5v0__antenna
XFILLER_88_392 vdd vss gf180mcu_fd_sc_mcu7t5v0__fillcap_32
XFILLER_0_274 vdd vss gf180mcu_fd_sc_mcu7t5v0__fillcap_4
XFILLER_91_502 vdd vss gf180mcu_fd_sc_mcu7t5v0__fill_2
XANTENNA__0889__I2 ram16\[8\].rb.ram1\[5\].rc.rd vdd vss gf180mcu_fd_sc_mcu7t5v0__antenna
XFILLER_63_215 vdd vss gf180mcu_fd_sc_mcu7t5v0__fillcap_64
XFILLER_29_492 vdd vss gf180mcu_fd_sc_mcu7t5v0__fillcap_4
XFILLER_32_602 vdd vss gf180mcu_fd_sc_mcu7t5v0__fill_1
XFILLER_44_484 vdd vss gf180mcu_fd_sc_mcu7t5v0__fill_1
XPHY_170 vdd vss gf180mcu_fd_sc_mcu7t5v0__endcap
XPHY_192 vdd vss gf180mcu_fd_sc_mcu7t5v0__endcap
XPHY_181 vdd vss gf180mcu_fd_sc_mcu7t5v0__endcap
XFILLER_75_5 vdd vss gf180mcu_fd_sc_mcu7t5v0__fillcap_64
XFILLER_12_392 vdd vss gf180mcu_fd_sc_mcu7t5v0__fillcap_64
X_1622_ _0406_ _0461_ _0237_ vdd vss gf180mcu_fd_sc_mcu7t5v0__nand2_1
XFILLER_8_385 vdd vss gf180mcu_fd_sc_mcu7t5v0__fillcap_4
XFILLER_99_624 vdd vss gf180mcu_fd_sc_mcu7t5v0__fill_2
XFILLER_98_101 vdd vss gf180mcu_fd_sc_mcu7t5v0__fillcap_4
X_1553_ ram16\[13\].rb.ram1\[3\].rc.mem _0416_ _0417_ vdd vss gf180mcu_fd_sc_mcu7t5v0__nand2_1
X_1484_ ram16\[11\].rb.ram1\[0\].rc.mem _0793_ _0373_ _0374_ vdd vss gf180mcu_fd_sc_mcu7t5v0__mux2_2
XFILLER_86_318 vdd vss gf180mcu_fd_sc_mcu7t5v0__fill_1
XFILLER_39_212 vdd vss gf180mcu_fd_sc_mcu7t5v0__fill_1
XFILLER_67_576 vdd vss gf180mcu_fd_sc_mcu7t5v0__fill_2
XFILLER_82_524 vdd vss gf180mcu_fd_sc_mcu7t5v0__fill_1
XFILLER_48_790 vdd vss gf180mcu_fd_sc_mcu7t5v0__fill_2
XFILLER_55_749 vdd vss gf180mcu_fd_sc_mcu7t5v0__fill_2
XFILLER_63_793 vdd vss gf180mcu_fd_sc_mcu7t5v0__fill_2
XFILLER_22_101 vdd vss gf180mcu_fd_sc_mcu7t5v0__fillcap_4
XFILLER_10_318 vdd vss gf180mcu_fd_sc_mcu7t5v0__fill_1
XFILLER_50_498 vdd vss gf180mcu_fd_sc_mcu7t5v0__fill_2
XFILLER_116_250 vdd vss gf180mcu_fd_sc_mcu7t5v0__fillcap_64
XFILLER_104_467 vdd vss gf180mcu_fd_sc_mcu7t5v0__fill_1
XANTENNA__1390__A1 ram16\[9\].rb.ram1\[3\].rc.rd vdd vss gf180mcu_fd_sc_mcu7t5v0__antenna
XANTENNA__1026__S _0649_ vdd vss gf180mcu_fd_sc_mcu7t5v0__antenna
XFILLER_86_863 vdd vss gf180mcu_fd_sc_mcu7t5v0__fill_2
XFILLER_73_502 vdd vss gf180mcu_fd_sc_mcu7t5v0__fill_2
XTAP_690 vdd vss gf180mcu_fd_sc_mcu7t5v0__filltie
XFILLER_46_716 vdd vss gf180mcu_fd_sc_mcu7t5v0__fillcap_4
XFILLER_100_673 vdd vss gf180mcu_fd_sc_mcu7t5v0__fill_1
XFILLER_45_215 vdd vss gf180mcu_fd_sc_mcu7t5v0__fillcap_64
XFILLER_46_727 vdd vss gf180mcu_fd_sc_mcu7t5v0__fill_2
XFILLER_14_602 vdd vss gf180mcu_fd_sc_mcu7t5v0__fill_1
XFILLER_41_421 vdd vss gf180mcu_fd_sc_mcu7t5v0__fillcap_4
XFILLER_41_432 vdd vss gf180mcu_fd_sc_mcu7t5v0__fill_1
XFILLER_54_793 vdd vss gf180mcu_fd_sc_mcu7t5v0__fill_2
XFILLER_108_740 vdd vss gf180mcu_fd_sc_mcu7t5v0__fillcap_4
XFILLER_107_283 vdd vss gf180mcu_fd_sc_mcu7t5v0__fill_1
XFILLER_96_605 vdd vss gf180mcu_fd_sc_mcu7t5v0__fill_1
XFILLER_68_318 vdd vss gf180mcu_fd_sc_mcu7t5v0__fill_1
XFILLER_95_137 vdd vss gf180mcu_fd_sc_mcu7t5v0__fillcap_4
XANTENNA__1133__A1 ram16\[3\].rb.ram1\[2\].rc.rd vdd vss gf180mcu_fd_sc_mcu7t5v0__antenna
XFILLER_91_354 vdd vss gf180mcu_fd_sc_mcu7t5v0__fill_1
XFILLER_64_568 vdd vss gf180mcu_fd_sc_mcu7t5v0__fill_2
XFILLER_83_70 vdd vss gf180mcu_fd_sc_mcu7t5v0__fill_1
XANTENNA__1436__A2 _0342_ vdd vss gf180mcu_fd_sc_mcu7t5v0__antenna
XFILLER_72_590 vdd vss gf180mcu_fd_sc_mcu7t5v0__fill_2
XANTENNA__1699__CLK clknet_leaf_18_clk vdd vss gf180mcu_fd_sc_mcu7t5v0__antenna
XFILLER_20_605 vdd vss gf180mcu_fd_sc_mcu7t5v0__fillcap_64
XFILLER_60_763 vdd vss gf180mcu_fd_sc_mcu7t5v0__fill_2
XFILLER_73_2 vdd vss gf180mcu_fd_sc_mcu7t5v0__fillcap_64
X_0984_ _0625_ _0010_ vdd vss gf180mcu_fd_sc_mcu7t5v0__clkbuf_1
XFILLER_118_559 vdd vss gf180mcu_fd_sc_mcu7t5v0__fill_1
XFILLER_99_421 vdd vss gf180mcu_fd_sc_mcu7t5v0__fillcap_4
X_1605_ _0620_ _0446_ _0451_ vdd vss gf180mcu_fd_sc_mcu7t5v0__nand2_1
XFILLER_99_432 vdd vss gf180mcu_fd_sc_mcu7t5v0__fill_2
X_1536_ ram16\[13\].rb.ram1\[7\].rc.rd _0400_ _0405_ vdd vss gf180mcu_fd_sc_mcu7t5v0__nand2_1
XFILLER_87_605 vdd vss gf180mcu_fd_sc_mcu7t5v0__fill_2
XFILLER_113_286 vdd vss gf180mcu_fd_sc_mcu7t5v0__fillcap_64
X_1467_ _0364_ _0179_ vdd vss gf180mcu_fd_sc_mcu7t5v0__clkbuf_1
XFILLER_87_638 vdd vss gf180mcu_fd_sc_mcu7t5v0__fill_1
X_1398_ _0728_ _0308_ _0320_ vdd vss gf180mcu_fd_sc_mcu7t5v0__nand2_1
XFILLER_27_215 vdd vss gf180mcu_fd_sc_mcu7t5v0__fillcap_64
XFILLER_55_502 vdd vss gf180mcu_fd_sc_mcu7t5v0__fillcap_16
XFILLER_82_321 vdd vss gf180mcu_fd_sc_mcu7t5v0__fillcap_64
XTAP_1108 vdd vss gf180mcu_fd_sc_mcu7t5v0__filltie
XTAP_1119 vdd vss gf180mcu_fd_sc_mcu7t5v0__filltie
XFILLER_23_421 vdd vss gf180mcu_fd_sc_mcu7t5v0__fillcap_4
XFILLER_11_638 vdd vss gf180mcu_fd_sc_mcu7t5v0__fill_1
XFILLER_6_108 vdd vss gf180mcu_fd_sc_mcu7t5v0__fillcap_64
XFILLER_12_33 vdd vss gf180mcu_fd_sc_mcu7t5v0__fill_2
XFILLER_117_570 vdd vss gf180mcu_fd_sc_mcu7t5v0__fillcap_64
XFILLER_88_37 vdd vss gf180mcu_fd_sc_mcu7t5v0__fillcap_64
XFILLER_2_314 vdd vss gf180mcu_fd_sc_mcu7t5v0__fillcap_4
XFILLER_78_605 vdd vss gf180mcu_fd_sc_mcu7t5v0__fill_1
XFILLER_77_137 vdd vss gf180mcu_fd_sc_mcu7t5v0__fillcap_4
XFILLER_59_830 vdd vss gf180mcu_fd_sc_mcu7t5v0__fill_2
XFILLER_19_705 vdd vss gf180mcu_fd_sc_mcu7t5v0__fillcap_4
XANTENNA__1666__A2 _0480_ vdd vss gf180mcu_fd_sc_mcu7t5v0__antenna
XFILLER_73_354 vdd vss gf180mcu_fd_sc_mcu7t5v0__fill_1
XTAP_1642 vdd vss gf180mcu_fd_sc_mcu7t5v0__filltie
XTAP_1631 vdd vss gf180mcu_fd_sc_mcu7t5v0__filltie
XTAP_1620 vdd vss gf180mcu_fd_sc_mcu7t5v0__filltie
XANTENNA__1841__CLK clknet_leaf_3_clk vdd vss gf180mcu_fd_sc_mcu7t5v0__antenna
XANTENNA__1418__A2 _0329_ vdd vss gf180mcu_fd_sc_mcu7t5v0__antenna
XTAP_1675 vdd vss gf180mcu_fd_sc_mcu7t5v0__filltie
XTAP_1664 vdd vss gf180mcu_fd_sc_mcu7t5v0__filltie
XTAP_1653 vdd vss gf180mcu_fd_sc_mcu7t5v0__filltie
XFILLER_42_763 vdd vss gf180mcu_fd_sc_mcu7t5v0__fill_2
XTAP_1686 vdd vss gf180mcu_fd_sc_mcu7t5v0__filltie
XFILLER_42_785 vdd vss gf180mcu_fd_sc_mcu7t5v0__fill_1
XFILLER_53_73 vdd vss gf180mcu_fd_sc_mcu7t5v0__fillcap_64
XANTENNA__0929__A1 _0519_ vdd vss gf180mcu_fd_sc_mcu7t5v0__antenna
XFILLER_5_141 vdd vss gf180mcu_fd_sc_mcu7t5v0__fill_1
XFILLER_96_424 vdd vss gf180mcu_fd_sc_mcu7t5v0__fill_2
X_1321_ _0270_ _0127_ vdd vss gf180mcu_fd_sc_mcu7t5v0__clkbuf_1
XFILLER_69_638 vdd vss gf180mcu_fd_sc_mcu7t5v0__fill_1
X_1252_ _0799_ _0805_ vdd vss gf180mcu_fd_sc_mcu7t5v0__clkbuf_2
XFILLER_84_608 vdd vss gf180mcu_fd_sc_mcu7t5v0__fillcap_4
XANTENNA__1106__A1 ram16\[3\].rb.ram1\[6\].rc.rd vdd vss gf180mcu_fd_sc_mcu7t5v0__antenna
XANTENNA__1657__A2 _0480_ vdd vss gf180mcu_fd_sc_mcu7t5v0__antenna
XFILLER_37_535 vdd vss gf180mcu_fd_sc_mcu7t5v0__fill_2
XFILLER_64_321 vdd vss gf180mcu_fd_sc_mcu7t5v0__fillcap_64
X_1183_ _0760_ _0761_ _0073_ vdd vss gf180mcu_fd_sc_mcu7t5v0__nand2_1
XFILLER_92_663 vdd vss gf180mcu_fd_sc_mcu7t5v0__fill_2
XFILLER_80_825 vdd vss gf180mcu_fd_sc_mcu7t5v0__fill_2
XFILLER_52_527 vdd vss gf180mcu_fd_sc_mcu7t5v0__fillcap_4
XFILLER_52_538 vdd vss gf180mcu_fd_sc_mcu7t5v0__fill_2
XANTENNA__1409__A2 _0326_ vdd vss gf180mcu_fd_sc_mcu7t5v0__antenna
XFILLER_118_301 vdd vss gf180mcu_fd_sc_mcu7t5v0__fillcap_8
X_0967_ _0613_ ram16\[0\].rb.ram1\[4\].rc.mem _0614_ _0615_ vdd vss gf180mcu_fd_sc_mcu7t5v0__mux2_2
XANTENNA__1593__A1 _0613_ vdd vss gf180mcu_fd_sc_mcu7t5v0__antenna
X_0898_ _0492_ _0555_ vdd vss gf180mcu_fd_sc_mcu7t5v0__clkbuf_1
XFILLER_0_829 vdd vss gf180mcu_fd_sc_mcu7t5v0__fillcap_8
XFILLER_0_807 vdd vss gf180mcu_fd_sc_mcu7t5v0__fillcap_8
XANTENNA__1714__CLK clknet_leaf_48_clk vdd vss gf180mcu_fd_sc_mcu7t5v0__antenna
XFILLER_101_212 vdd vss gf180mcu_fd_sc_mcu7t5v0__fill_1
X_1519_ _0393_ _0202_ vdd vss gf180mcu_fd_sc_mcu7t5v0__clkbuf_1
XFILLER_59_137 vdd vss gf180mcu_fd_sc_mcu7t5v0__fillcap_4
XFILLER_75_608 vdd vss gf180mcu_fd_sc_mcu7t5v0__fill_2
XANTENNA__0943__I1 ram16\[1\].rb.ram1\[0\].rc.rd vdd vss gf180mcu_fd_sc_mcu7t5v0__antenna
XANTENNA__1304__S _0257_ vdd vss gf180mcu_fd_sc_mcu7t5v0__antenna
XANTENNA__1648__A2 _0473_ vdd vss gf180mcu_fd_sc_mcu7t5v0__antenna
XFILLER_83_641 vdd vss gf180mcu_fd_sc_mcu7t5v0__fillcap_4
XFILLER_56_844 vdd vss gf180mcu_fd_sc_mcu7t5v0__fill_1
XFILLER_43_516 vdd vss gf180mcu_fd_sc_mcu7t5v0__fill_2
XFILLER_55_354 vdd vss gf180mcu_fd_sc_mcu7t5v0__fill_1
XFILLER_71_803 vdd vss gf180mcu_fd_sc_mcu7t5v0__fill_2
XFILLER_36_590 vdd vss gf180mcu_fd_sc_mcu7t5v0__fill_1
XFILLER_51_593 vdd vss gf180mcu_fd_sc_mcu7t5v0__fillcap_8
XFILLER_7_428 vdd vss gf180mcu_fd_sc_mcu7t5v0__fillcap_64
XFILLER_3_634 vdd vss gf180mcu_fd_sc_mcu7t5v0__fillcap_4
XFILLER_3_2 vdd vss gf180mcu_fd_sc_mcu7t5v0__fillcap_64
XANTENNA__0934__I1 ram16\[1\].rb.ram1\[1\].rc.rd vdd vss gf180mcu_fd_sc_mcu7t5v0__antenna
XANTENNA__1639__A2 _0465_ vdd vss gf180mcu_fd_sc_mcu7t5v0__antenna