*SPEF "ieee 1481-1999"
*DESIGN "ram_16B"
*DATE "11:11:11 Fri 11 11, 1111"
*VENDOR "OpenRCX"
*PROGRAM "Parallel Extraction"
*VERSION "1.0"
*DESIGN_FLOW "NAME_SCOPE LOCAL" "PIN_CAP NONE"
*DIVIDER /
*DELIMITER :
*BUS_DELIMITER []
*T_UNIT 1 NS
*C_UNIT 1 PF
*R_UNIT 1 OHM
*L_UNIT 1 HENRY

*NAME_MAP
*1 address[0]
*2 address[1]
*3 address[2]
*4 address[3]
*5 clk
*6 data_in[0]
*7 data_in[1]
*8 data_in[2]
*9 data_in[3]
*10 data_in[4]
*11 data_in[5]
*12 data_in[6]
*13 data_in[7]
*14 data_out[0]
*15 data_out[1]
*16 data_out[2]
*17 data_out[3]
*18 data_out[4]
*19 data_out[5]
*20 data_out[6]
*21 data_out[7]
*22 rd_wr
*25 _0000_
*26 _0001_
*27 _0002_
*28 _0003_
*29 _0004_
*30 _0005_
*31 _0006_
*32 _0007_
*33 _0008_
*34 _0009_
*35 _0010_
*36 _0011_
*37 _0012_
*38 _0013_
*39 _0014_
*40 _0015_
*41 _0016_
*42 _0017_
*43 _0018_
*44 _0019_
*45 _0020_
*46 _0021_
*47 _0022_
*48 _0023_
*49 _0024_
*50 _0025_
*51 _0026_
*52 _0027_
*53 _0028_
*54 _0029_
*55 _0030_
*56 _0031_
*57 _0032_
*58 _0033_
*59 _0034_
*60 _0035_
*61 _0036_
*62 _0037_
*63 _0038_
*64 _0039_
*65 _0040_
*66 _0041_
*67 _0042_
*68 _0043_
*69 _0044_
*70 _0045_
*71 _0046_
*72 _0047_
*73 _0048_
*74 _0049_
*75 _0050_
*76 _0051_
*77 _0052_
*78 _0053_
*79 _0054_
*80 _0055_
*81 _0056_
*82 _0057_
*83 _0058_
*84 _0059_
*85 _0060_
*86 _0061_
*87 _0062_
*88 _0063_
*89 _0064_
*90 _0065_
*91 _0066_
*92 _0067_
*93 _0068_
*94 _0069_
*95 _0070_
*96 _0071_
*97 _0072_
*98 _0073_
*99 _0074_
*100 _0075_
*101 _0076_
*102 _0077_
*103 _0078_
*104 _0079_
*105 _0080_
*106 _0081_
*107 _0082_
*108 _0083_
*109 _0084_
*110 _0085_
*111 _0086_
*112 _0087_
*113 _0088_
*114 _0089_
*115 _0090_
*116 _0091_
*117 _0092_
*118 _0093_
*119 _0094_
*120 _0095_
*121 _0096_
*122 _0097_
*123 _0098_
*124 _0099_
*125 _0100_
*126 _0101_
*127 _0102_
*128 _0103_
*129 _0104_
*130 _0105_
*131 _0106_
*132 _0107_
*133 _0108_
*134 _0109_
*135 _0110_
*136 _0111_
*137 _0112_
*138 _0113_
*139 _0114_
*140 _0115_
*141 _0116_
*142 _0117_
*143 _0118_
*144 _0119_
*145 _0120_
*146 _0121_
*147 _0122_
*148 _0123_
*149 _0124_
*150 _0125_
*151 _0126_
*152 _0127_
*153 _0128_
*154 _0129_
*155 _0130_
*156 _0131_
*157 _0132_
*158 _0133_
*159 _0134_
*160 _0135_
*161 _0136_
*162 _0137_
*163 _0138_
*164 _0139_
*165 _0140_
*166 _0141_
*167 _0142_
*168 _0143_
*169 _0144_
*170 _0145_
*171 _0146_
*172 _0147_
*173 _0148_
*174 _0149_
*175 _0150_
*176 _0151_
*177 _0152_
*178 _0153_
*179 _0154_
*180 _0155_
*181 _0156_
*182 _0157_
*183 _0158_
*184 _0159_
*185 _0160_
*186 _0161_
*187 _0162_
*188 _0163_
*189 _0164_
*190 _0165_
*191 _0166_
*192 _0167_
*193 _0168_
*194 _0169_
*195 _0170_
*196 _0171_
*197 _0172_
*198 _0173_
*199 _0174_
*200 _0175_
*201 _0176_
*202 _0177_
*203 _0178_
*204 _0179_
*205 _0180_
*206 _0181_
*207 _0182_
*208 _0183_
*209 _0184_
*210 _0185_
*211 _0186_
*212 _0187_
*213 _0188_
*214 _0189_
*215 _0190_
*216 _0191_
*217 _0192_
*218 _0193_
*219 _0194_
*220 _0195_
*221 _0196_
*222 _0197_
*223 _0198_
*224 _0199_
*225 _0200_
*226 _0201_
*227 _0202_
*228 _0203_
*229 _0204_
*230 _0205_
*231 _0206_
*232 _0207_
*233 _0208_
*234 _0209_
*235 _0210_
*236 _0211_
*237 _0212_
*238 _0213_
*239 _0214_
*240 _0215_
*241 _0216_
*242 _0217_
*243 _0218_
*244 _0219_
*245 _0220_
*246 _0221_
*247 _0222_
*248 _0223_
*249 _0224_
*250 _0225_
*251 _0226_
*252 _0227_
*253 _0228_
*254 _0229_
*255 _0230_
*256 _0231_
*257 _0232_
*258 _0233_
*259 _0234_
*260 _0235_
*261 _0236_
*262 _0237_
*263 _0238_
*264 _0239_
*265 _0240_
*266 _0241_
*267 _0242_
*268 _0243_
*269 _0244_
*270 _0245_
*271 _0246_
*272 _0247_
*273 _0248_
*274 _0249_
*275 _0250_
*276 _0251_
*277 _0252_
*278 _0253_
*279 _0254_
*280 _0255_
*281 _0256_
*282 _0257_
*283 _0258_
*284 _0259_
*285 _0260_
*286 _0261_
*287 _0262_
*288 _0263_
*289 _0264_
*290 _0265_
*291 _0266_
*292 _0267_
*293 _0268_
*294 _0269_
*295 _0270_
*296 _0271_
*297 _0272_
*298 _0273_
*299 _0274_
*300 _0275_
*301 _0276_
*302 _0277_
*303 _0278_
*304 _0279_
*305 _0280_
*306 _0281_
*307 _0282_
*308 _0283_
*309 _0284_
*310 _0285_
*311 _0286_
*312 _0287_
*313 _0288_
*314 _0289_
*315 _0290_
*316 _0291_
*317 _0292_
*318 _0293_
*319 _0294_
*320 _0295_
*321 _0296_
*322 _0297_
*323 _0298_
*324 _0299_
*325 _0300_
*326 _0301_
*327 _0302_
*328 _0303_
*329 _0304_
*330 _0305_
*331 _0306_
*332 _0307_
*333 _0308_
*334 _0309_
*335 _0310_
*336 _0311_
*337 _0312_
*338 _0313_
*339 _0314_
*340 _0315_
*341 _0316_
*342 _0317_
*343 _0318_
*344 _0319_
*345 _0320_
*346 _0321_
*347 _0322_
*348 _0323_
*349 _0324_
*350 _0325_
*351 _0326_
*352 _0327_
*353 _0328_
*354 _0329_
*355 _0330_
*356 _0331_
*357 _0332_
*358 _0333_
*359 _0334_
*360 _0335_
*361 _0336_
*362 _0337_
*363 _0338_
*364 _0339_
*365 _0340_
*366 _0341_
*367 _0342_
*368 _0343_
*369 _0344_
*370 _0345_
*371 _0346_
*372 _0347_
*373 _0348_
*374 _0349_
*375 _0350_
*376 _0351_
*377 _0352_
*378 _0353_
*379 _0354_
*380 _0355_
*381 _0356_
*382 _0357_
*383 _0358_
*384 _0359_
*385 _0360_
*386 _0361_
*387 _0362_
*388 _0363_
*389 _0364_
*390 _0365_
*391 _0366_
*392 _0367_
*393 _0368_
*394 _0369_
*395 _0370_
*396 _0371_
*397 _0372_
*398 _0373_
*399 _0374_
*400 _0375_
*401 _0376_
*402 _0377_
*403 _0378_
*404 _0379_
*405 _0380_
*406 _0381_
*407 _0382_
*408 _0383_
*409 _0384_
*410 _0385_
*411 _0386_
*412 _0387_
*413 _0388_
*414 _0389_
*415 _0390_
*416 _0391_
*417 _0392_
*418 _0393_
*419 _0394_
*420 _0395_
*421 _0396_
*422 _0397_
*423 _0398_
*424 _0399_
*425 _0400_
*426 _0401_
*427 _0402_
*428 _0403_
*429 _0404_
*430 _0405_
*431 _0406_
*432 _0407_
*433 _0408_
*434 _0409_
*435 _0410_
*436 _0411_
*437 _0412_
*438 _0413_
*439 _0414_
*440 _0415_
*441 _0416_
*442 _0417_
*443 _0418_
*444 _0419_
*445 _0420_
*446 _0421_
*447 _0422_
*448 _0423_
*449 _0424_
*450 _0425_
*451 _0426_
*452 _0427_
*453 _0428_
*454 _0429_
*455 _0430_
*456 _0431_
*457 _0432_
*458 _0433_
*459 _0434_
*460 _0435_
*461 _0436_
*462 _0437_
*463 _0438_
*464 _0439_
*465 _0440_
*466 _0441_
*467 _0442_
*468 _0443_
*469 _0444_
*470 _0445_
*471 _0446_
*472 _0447_
*473 _0448_
*474 _0449_
*475 _0450_
*476 _0451_
*477 _0452_
*478 _0453_
*479 _0454_
*480 _0455_
*481 _0456_
*482 _0457_
*483 _0458_
*484 _0459_
*485 _0460_
*486 _0461_
*487 _0462_
*488 _0463_
*489 _0464_
*490 _0465_
*491 _0466_
*492 _0467_
*493 _0468_
*494 _0469_
*495 _0470_
*496 _0471_
*497 _0472_
*498 _0473_
*499 _0474_
*500 _0475_
*501 _0476_
*502 _0477_
*503 _0478_
*504 _0479_
*505 _0480_
*506 _0481_
*507 _0482_
*508 _0483_
*509 _0484_
*510 _0485_
*511 _0486_
*512 _0487_
*513 _0488_
*514 _0489_
*515 _0490_
*516 _0491_
*517 _0492_
*518 _0493_
*519 _0494_
*520 _0495_
*521 _0496_
*522 _0497_
*523 _0498_
*524 _0499_
*525 _0500_
*526 _0501_
*527 _0502_
*528 _0503_
*529 _0504_
*530 _0505_
*531 _0506_
*532 _0507_
*533 _0508_
*534 _0509_
*535 _0510_
*536 _0511_
*537 _0512_
*538 _0513_
*539 _0514_
*540 _0515_
*541 _0516_
*542 _0517_
*543 _0518_
*544 _0519_
*545 _0520_
*546 _0521_
*547 _0522_
*548 _0523_
*549 _0524_
*550 _0525_
*551 _0526_
*552 _0527_
*553 _0528_
*554 _0529_
*555 _0530_
*556 _0531_
*557 _0532_
*558 _0533_
*559 _0534_
*560 _0535_
*561 _0536_
*562 _0537_
*563 _0538_
*564 _0539_
*565 _0540_
*566 _0541_
*567 _0542_
*568 _0543_
*569 _0544_
*570 _0545_
*571 _0546_
*572 _0547_
*573 _0548_
*574 _0549_
*575 _0550_
*576 _0551_
*577 _0552_
*578 _0553_
*579 _0554_
*580 _0555_
*581 _0556_
*582 _0557_
*583 _0558_
*584 _0559_
*585 _0560_
*586 _0561_
*587 _0562_
*588 _0563_
*589 _0564_
*590 _0565_
*591 _0566_
*592 _0567_
*593 _0568_
*594 _0569_
*595 _0570_
*596 _0571_
*597 _0572_
*598 _0573_
*599 _0574_
*600 _0575_
*601 _0576_
*602 _0577_
*603 _0578_
*604 _0579_
*605 _0580_
*606 _0581_
*607 _0582_
*608 _0583_
*609 _0584_
*610 _0585_
*611 _0586_
*612 _0587_
*613 _0588_
*614 _0589_
*615 _0590_
*616 _0591_
*617 _0592_
*618 _0593_
*619 _0594_
*620 _0595_
*621 _0596_
*622 _0597_
*623 _0598_
*624 _0599_
*625 _0600_
*626 _0601_
*627 _0602_
*628 _0603_
*629 _0604_
*630 _0605_
*631 _0606_
*632 _0607_
*633 _0608_
*634 _0609_
*635 _0610_
*636 _0611_
*637 _0612_
*638 _0613_
*639 _0614_
*640 _0615_
*641 _0616_
*642 _0617_
*643 _0618_
*644 _0619_
*645 _0620_
*646 _0621_
*647 _0622_
*648 _0623_
*649 _0624_
*650 _0625_
*651 _0626_
*652 _0627_
*653 _0628_
*654 _0629_
*655 _0630_
*656 _0631_
*657 _0632_
*658 _0633_
*659 _0634_
*660 _0635_
*661 _0636_
*662 _0637_
*663 _0638_
*664 _0639_
*665 _0640_
*666 _0641_
*667 _0642_
*668 _0643_
*669 _0644_
*670 _0645_
*671 _0646_
*672 _0647_
*673 _0648_
*674 _0649_
*675 _0650_
*676 _0651_
*677 _0652_
*678 _0653_
*679 _0654_
*680 _0655_
*681 _0656_
*682 _0657_
*683 _0658_
*684 _0659_
*685 _0660_
*686 _0661_
*687 _0662_
*688 _0663_
*689 _0664_
*690 _0665_
*691 _0666_
*692 _0667_
*693 _0668_
*694 _0669_
*695 _0670_
*696 _0671_
*697 _0672_
*698 _0673_
*699 _0674_
*700 _0675_
*701 _0676_
*702 _0677_
*703 _0678_
*704 _0679_
*705 _0680_
*706 _0681_
*707 _0682_
*708 _0683_
*709 _0684_
*710 _0685_
*711 _0686_
*712 _0687_
*713 _0688_
*714 _0689_
*715 _0690_
*716 _0691_
*717 _0692_
*718 _0693_
*719 _0694_
*720 _0695_
*721 _0696_
*722 _0697_
*723 _0698_
*724 _0699_
*725 _0700_
*726 _0701_
*727 _0702_
*728 _0703_
*729 _0704_
*730 _0705_
*731 _0706_
*732 _0707_
*733 _0708_
*734 _0709_
*735 _0710_
*736 _0711_
*737 _0712_
*738 _0713_
*739 _0714_
*740 _0715_
*741 _0716_
*742 _0717_
*743 _0718_
*744 _0719_
*745 _0720_
*746 _0721_
*747 _0722_
*748 _0723_
*749 _0724_
*750 _0725_
*751 _0726_
*752 _0727_
*753 _0728_
*754 _0729_
*755 _0730_
*756 _0731_
*757 _0732_
*758 _0733_
*759 _0734_
*760 _0735_
*761 _0736_
*762 _0737_
*763 _0738_
*764 _0739_
*765 _0740_
*766 _0741_
*767 _0742_
*768 _0743_
*769 _0744_
*770 _0745_
*771 _0746_
*772 _0747_
*773 _0748_
*774 _0749_
*775 _0750_
*776 _0751_
*777 _0752_
*778 _0753_
*779 _0754_
*780 _0755_
*781 _0756_
*782 _0757_
*783 _0758_
*784 _0759_
*785 _0760_
*786 _0761_
*787 _0762_
*788 _0763_
*789 _0764_
*790 _0765_
*791 _0766_
*792 _0767_
*793 _0768_
*794 _0769_
*795 _0770_
*796 _0771_
*797 _0772_
*798 _0773_
*799 _0774_
*800 _0775_
*801 _0776_
*802 _0777_
*803 _0778_
*804 _0779_
*805 _0780_
*806 _0781_
*807 _0782_
*808 _0783_
*809 _0784_
*810 _0785_
*811 _0786_
*812 _0787_
*813 _0788_
*814 _0789_
*815 _0790_
*816 _0791_
*817 _0792_
*818 _0793_
*819 _0794_
*820 _0795_
*821 _0796_
*822 _0797_
*823 _0798_
*824 _0799_
*825 _0800_
*826 _0801_
*827 _0802_
*828 _0803_
*829 _0804_
*830 _0805_
*831 _0806_
*832 _0807_
*833 _0808_
*834 _0809_
*835 _0810_
*836 _0811_
*837 _0812_
*838 _0813_
*839 _0814_
*840 _0815_
*841 _0816_
*842 _0817_
*843 _0818_
*844 _0819_
*845 _0820_
*846 _0821_
*847 _0822_
*848 _0823_
*849 _0824_
*850 _0825_
*851 _0826_
*852 _0827_
*853 _0828_
*854 _0829_
*855 _0830_
*856 clknet_0_clk
*857 clknet_2_0__leaf_clk
*858 clknet_2_1__leaf_clk
*859 clknet_2_2__leaf_clk
*860 clknet_2_3__leaf_clk
*861 clknet_leaf_0_clk
*862 clknet_leaf_10_clk
*863 clknet_leaf_11_clk
*864 clknet_leaf_12_clk
*865 clknet_leaf_13_clk
*866 clknet_leaf_14_clk
*867 clknet_leaf_15_clk
*868 clknet_leaf_16_clk
*869 clknet_leaf_17_clk
*870 clknet_leaf_18_clk
*871 clknet_leaf_19_clk
*872 clknet_leaf_1_clk
*873 clknet_leaf_20_clk
*874 clknet_leaf_21_clk
*875 clknet_leaf_22_clk
*876 clknet_leaf_23_clk
*877 clknet_leaf_24_clk
*878 clknet_leaf_25_clk
*879 clknet_leaf_26_clk
*880 clknet_leaf_27_clk
*881 clknet_leaf_28_clk
*882 clknet_leaf_29_clk
*883 clknet_leaf_2_clk
*884 clknet_leaf_30_clk
*885 clknet_leaf_31_clk
*886 clknet_leaf_32_clk
*887 clknet_leaf_33_clk
*888 clknet_leaf_34_clk
*889 clknet_leaf_35_clk
*890 clknet_leaf_36_clk
*891 clknet_leaf_38_clk
*892 clknet_leaf_39_clk
*893 clknet_leaf_3_clk
*894 clknet_leaf_40_clk
*895 clknet_leaf_41_clk
*896 clknet_leaf_42_clk
*897 clknet_leaf_43_clk
*898 clknet_leaf_44_clk
*899 clknet_leaf_45_clk
*900 clknet_leaf_46_clk
*901 clknet_leaf_47_clk
*902 clknet_leaf_48_clk
*903 clknet_leaf_4_clk
*904 clknet_leaf_50_clk
*905 clknet_leaf_51_clk
*906 clknet_leaf_52_clk
*907 clknet_leaf_5_clk
*908 clknet_leaf_6_clk
*909 clknet_leaf_7_clk
*910 clknet_leaf_8_clk
*911 clknet_leaf_9_clk
*912 net1
*913 net10
*914 net11
*915 net12
*916 net13
*917 net14
*918 net15
*919 net16
*920 net17
*921 net18
*922 net19
*923 net2
*924 net20
*925 net21
*926 net3
*927 net4
*928 net5
*929 net6
*930 net7
*931 net8
*932 net9
*933 ram16\[0\]\.rb\.ram1\[0\]\.rc\.mem
*934 ram16\[0\]\.rb\.ram1\[0\]\.rc\.rd
*935 ram16\[0\]\.rb\.ram1\[1\]\.rc\.mem
*936 ram16\[0\]\.rb\.ram1\[1\]\.rc\.rd
*937 ram16\[0\]\.rb\.ram1\[2\]\.rc\.mem
*938 ram16\[0\]\.rb\.ram1\[2\]\.rc\.rd
*939 ram16\[0\]\.rb\.ram1\[3\]\.rc\.mem
*940 ram16\[0\]\.rb\.ram1\[3\]\.rc\.rd
*941 ram16\[0\]\.rb\.ram1\[4\]\.rc\.mem
*942 ram16\[0\]\.rb\.ram1\[4\]\.rc\.rd
*943 ram16\[0\]\.rb\.ram1\[5\]\.rc\.mem
*944 ram16\[0\]\.rb\.ram1\[5\]\.rc\.rd
*945 ram16\[0\]\.rb\.ram1\[6\]\.rc\.mem
*946 ram16\[0\]\.rb\.ram1\[6\]\.rc\.rd
*947 ram16\[0\]\.rb\.ram1\[7\]\.rc\.mem
*948 ram16\[0\]\.rb\.ram1\[7\]\.rc\.rd
*949 ram16\[10\]\.rb\.ram1\[0\]\.rc\.mem
*950 ram16\[10\]\.rb\.ram1\[0\]\.rc\.rd
*951 ram16\[10\]\.rb\.ram1\[1\]\.rc\.mem
*952 ram16\[10\]\.rb\.ram1\[1\]\.rc\.rd
*953 ram16\[10\]\.rb\.ram1\[2\]\.rc\.mem
*954 ram16\[10\]\.rb\.ram1\[2\]\.rc\.rd
*955 ram16\[10\]\.rb\.ram1\[3\]\.rc\.mem
*956 ram16\[10\]\.rb\.ram1\[3\]\.rc\.rd
*957 ram16\[10\]\.rb\.ram1\[4\]\.rc\.mem
*958 ram16\[10\]\.rb\.ram1\[4\]\.rc\.rd
*959 ram16\[10\]\.rb\.ram1\[5\]\.rc\.mem
*960 ram16\[10\]\.rb\.ram1\[5\]\.rc\.rd
*961 ram16\[10\]\.rb\.ram1\[6\]\.rc\.mem
*962 ram16\[10\]\.rb\.ram1\[6\]\.rc\.rd
*963 ram16\[10\]\.rb\.ram1\[7\]\.rc\.mem
*964 ram16\[10\]\.rb\.ram1\[7\]\.rc\.rd
*965 ram16\[11\]\.rb\.ram1\[0\]\.rc\.mem
*966 ram16\[11\]\.rb\.ram1\[0\]\.rc\.rd
*967 ram16\[11\]\.rb\.ram1\[1\]\.rc\.mem
*968 ram16\[11\]\.rb\.ram1\[1\]\.rc\.rd
*969 ram16\[11\]\.rb\.ram1\[2\]\.rc\.mem
*970 ram16\[11\]\.rb\.ram1\[2\]\.rc\.rd
*971 ram16\[11\]\.rb\.ram1\[3\]\.rc\.mem
*972 ram16\[11\]\.rb\.ram1\[3\]\.rc\.rd
*973 ram16\[11\]\.rb\.ram1\[4\]\.rc\.mem
*974 ram16\[11\]\.rb\.ram1\[4\]\.rc\.rd
*975 ram16\[11\]\.rb\.ram1\[5\]\.rc\.mem
*976 ram16\[11\]\.rb\.ram1\[5\]\.rc\.rd
*977 ram16\[11\]\.rb\.ram1\[6\]\.rc\.mem
*978 ram16\[11\]\.rb\.ram1\[6\]\.rc\.rd
*979 ram16\[11\]\.rb\.ram1\[7\]\.rc\.mem
*980 ram16\[11\]\.rb\.ram1\[7\]\.rc\.rd
*981 ram16\[12\]\.rb\.ram1\[0\]\.rc\.mem
*982 ram16\[12\]\.rb\.ram1\[0\]\.rc\.rd
*983 ram16\[12\]\.rb\.ram1\[1\]\.rc\.mem
*984 ram16\[12\]\.rb\.ram1\[1\]\.rc\.rd
*985 ram16\[12\]\.rb\.ram1\[2\]\.rc\.mem
*986 ram16\[12\]\.rb\.ram1\[2\]\.rc\.rd
*987 ram16\[12\]\.rb\.ram1\[3\]\.rc\.mem
*988 ram16\[12\]\.rb\.ram1\[3\]\.rc\.rd
*989 ram16\[12\]\.rb\.ram1\[4\]\.rc\.mem
*990 ram16\[12\]\.rb\.ram1\[4\]\.rc\.rd
*991 ram16\[12\]\.rb\.ram1\[5\]\.rc\.mem
*992 ram16\[12\]\.rb\.ram1\[5\]\.rc\.rd
*993 ram16\[12\]\.rb\.ram1\[6\]\.rc\.mem
*994 ram16\[12\]\.rb\.ram1\[6\]\.rc\.rd
*995 ram16\[12\]\.rb\.ram1\[7\]\.rc\.mem
*996 ram16\[12\]\.rb\.ram1\[7\]\.rc\.rd
*997 ram16\[13\]\.rb\.ram1\[0\]\.rc\.mem
*998 ram16\[13\]\.rb\.ram1\[0\]\.rc\.rd
*999 ram16\[13\]\.rb\.ram1\[1\]\.rc\.mem
*1000 ram16\[13\]\.rb\.ram1\[1\]\.rc\.rd
*1001 ram16\[13\]\.rb\.ram1\[2\]\.rc\.mem
*1002 ram16\[13\]\.rb\.ram1\[2\]\.rc\.rd
*1003 ram16\[13\]\.rb\.ram1\[3\]\.rc\.mem
*1004 ram16\[13\]\.rb\.ram1\[3\]\.rc\.rd
*1005 ram16\[13\]\.rb\.ram1\[4\]\.rc\.mem
*1006 ram16\[13\]\.rb\.ram1\[4\]\.rc\.rd
*1007 ram16\[13\]\.rb\.ram1\[5\]\.rc\.mem
*1008 ram16\[13\]\.rb\.ram1\[5\]\.rc\.rd
*1009 ram16\[13\]\.rb\.ram1\[6\]\.rc\.mem
*1010 ram16\[13\]\.rb\.ram1\[6\]\.rc\.rd
*1011 ram16\[13\]\.rb\.ram1\[7\]\.rc\.mem
*1012 ram16\[13\]\.rb\.ram1\[7\]\.rc\.rd
*1013 ram16\[14\]\.rb\.ram1\[0\]\.rc\.mem
*1014 ram16\[14\]\.rb\.ram1\[0\]\.rc\.rd
*1015 ram16\[14\]\.rb\.ram1\[1\]\.rc\.mem
*1016 ram16\[14\]\.rb\.ram1\[1\]\.rc\.rd
*1017 ram16\[14\]\.rb\.ram1\[2\]\.rc\.mem
*1018 ram16\[14\]\.rb\.ram1\[2\]\.rc\.rd
*1019 ram16\[14\]\.rb\.ram1\[3\]\.rc\.mem
*1020 ram16\[14\]\.rb\.ram1\[3\]\.rc\.rd
*1021 ram16\[14\]\.rb\.ram1\[4\]\.rc\.mem
*1022 ram16\[14\]\.rb\.ram1\[4\]\.rc\.rd
*1023 ram16\[14\]\.rb\.ram1\[5\]\.rc\.mem
*1024 ram16\[14\]\.rb\.ram1\[5\]\.rc\.rd
*1025 ram16\[14\]\.rb\.ram1\[6\]\.rc\.mem
*1026 ram16\[14\]\.rb\.ram1\[6\]\.rc\.rd
*1027 ram16\[14\]\.rb\.ram1\[7\]\.rc\.mem
*1028 ram16\[14\]\.rb\.ram1\[7\]\.rc\.rd
*1029 ram16\[15\]\.rb\.ram1\[0\]\.rc\.mem
*1030 ram16\[15\]\.rb\.ram1\[0\]\.rc\.rd
*1031 ram16\[15\]\.rb\.ram1\[1\]\.rc\.mem
*1032 ram16\[15\]\.rb\.ram1\[1\]\.rc\.rd
*1033 ram16\[15\]\.rb\.ram1\[2\]\.rc\.mem
*1034 ram16\[15\]\.rb\.ram1\[2\]\.rc\.rd
*1035 ram16\[15\]\.rb\.ram1\[3\]\.rc\.mem
*1036 ram16\[15\]\.rb\.ram1\[3\]\.rc\.rd
*1037 ram16\[15\]\.rb\.ram1\[4\]\.rc\.mem
*1038 ram16\[15\]\.rb\.ram1\[4\]\.rc\.rd
*1039 ram16\[15\]\.rb\.ram1\[5\]\.rc\.mem
*1040 ram16\[15\]\.rb\.ram1\[5\]\.rc\.rd
*1041 ram16\[15\]\.rb\.ram1\[6\]\.rc\.mem
*1042 ram16\[15\]\.rb\.ram1\[6\]\.rc\.rd
*1043 ram16\[15\]\.rb\.ram1\[7\]\.rc\.mem
*1044 ram16\[15\]\.rb\.ram1\[7\]\.rc\.rd
*1045 ram16\[1\]\.rb\.ram1\[0\]\.rc\.mem
*1046 ram16\[1\]\.rb\.ram1\[0\]\.rc\.rd
*1047 ram16\[1\]\.rb\.ram1\[1\]\.rc\.mem
*1048 ram16\[1\]\.rb\.ram1\[1\]\.rc\.rd
*1049 ram16\[1\]\.rb\.ram1\[2\]\.rc\.mem
*1050 ram16\[1\]\.rb\.ram1\[2\]\.rc\.rd
*1051 ram16\[1\]\.rb\.ram1\[3\]\.rc\.mem
*1052 ram16\[1\]\.rb\.ram1\[3\]\.rc\.rd
*1053 ram16\[1\]\.rb\.ram1\[4\]\.rc\.mem
*1054 ram16\[1\]\.rb\.ram1\[4\]\.rc\.rd
*1055 ram16\[1\]\.rb\.ram1\[5\]\.rc\.mem
*1056 ram16\[1\]\.rb\.ram1\[5\]\.rc\.rd
*1057 ram16\[1\]\.rb\.ram1\[6\]\.rc\.mem
*1058 ram16\[1\]\.rb\.ram1\[6\]\.rc\.rd
*1059 ram16\[1\]\.rb\.ram1\[7\]\.rc\.mem
*1060 ram16\[1\]\.rb\.ram1\[7\]\.rc\.rd
*1061 ram16\[2\]\.rb\.ram1\[0\]\.rc\.mem
*1062 ram16\[2\]\.rb\.ram1\[0\]\.rc\.rd
*1063 ram16\[2\]\.rb\.ram1\[1\]\.rc\.mem
*1064 ram16\[2\]\.rb\.ram1\[1\]\.rc\.rd
*1065 ram16\[2\]\.rb\.ram1\[2\]\.rc\.mem
*1066 ram16\[2\]\.rb\.ram1\[2\]\.rc\.rd
*1067 ram16\[2\]\.rb\.ram1\[3\]\.rc\.mem
*1068 ram16\[2\]\.rb\.ram1\[3\]\.rc\.rd
*1069 ram16\[2\]\.rb\.ram1\[4\]\.rc\.mem
*1070 ram16\[2\]\.rb\.ram1\[4\]\.rc\.rd
*1071 ram16\[2\]\.rb\.ram1\[5\]\.rc\.mem
*1072 ram16\[2\]\.rb\.ram1\[5\]\.rc\.rd
*1073 ram16\[2\]\.rb\.ram1\[6\]\.rc\.mem
*1074 ram16\[2\]\.rb\.ram1\[6\]\.rc\.rd
*1075 ram16\[2\]\.rb\.ram1\[7\]\.rc\.mem
*1076 ram16\[2\]\.rb\.ram1\[7\]\.rc\.rd
*1077 ram16\[3\]\.rb\.ram1\[0\]\.rc\.mem
*1078 ram16\[3\]\.rb\.ram1\[0\]\.rc\.rd
*1079 ram16\[3\]\.rb\.ram1\[1\]\.rc\.mem
*1080 ram16\[3\]\.rb\.ram1\[1\]\.rc\.rd
*1081 ram16\[3\]\.rb\.ram1\[2\]\.rc\.mem
*1082 ram16\[3\]\.rb\.ram1\[2\]\.rc\.rd
*1083 ram16\[3\]\.rb\.ram1\[3\]\.rc\.mem
*1084 ram16\[3\]\.rb\.ram1\[3\]\.rc\.rd
*1085 ram16\[3\]\.rb\.ram1\[4\]\.rc\.mem
*1086 ram16\[3\]\.rb\.ram1\[4\]\.rc\.rd
*1087 ram16\[3\]\.rb\.ram1\[5\]\.rc\.mem
*1088 ram16\[3\]\.rb\.ram1\[5\]\.rc\.rd
*1089 ram16\[3\]\.rb\.ram1\[6\]\.rc\.mem
*1090 ram16\[3\]\.rb\.ram1\[6\]\.rc\.rd
*1091 ram16\[3\]\.rb\.ram1\[7\]\.rc\.mem
*1092 ram16\[3\]\.rb\.ram1\[7\]\.rc\.rd
*1093 ram16\[4\]\.rb\.ram1\[0\]\.rc\.mem
*1094 ram16\[4\]\.rb\.ram1\[0\]\.rc\.rd
*1095 ram16\[4\]\.rb\.ram1\[1\]\.rc\.mem
*1096 ram16\[4\]\.rb\.ram1\[1\]\.rc\.rd
*1097 ram16\[4\]\.rb\.ram1\[2\]\.rc\.mem
*1098 ram16\[4\]\.rb\.ram1\[2\]\.rc\.rd
*1099 ram16\[4\]\.rb\.ram1\[3\]\.rc\.mem
*1100 ram16\[4\]\.rb\.ram1\[3\]\.rc\.rd
*1101 ram16\[4\]\.rb\.ram1\[4\]\.rc\.mem
*1102 ram16\[4\]\.rb\.ram1\[4\]\.rc\.rd
*1103 ram16\[4\]\.rb\.ram1\[5\]\.rc\.mem
*1104 ram16\[4\]\.rb\.ram1\[5\]\.rc\.rd
*1105 ram16\[4\]\.rb\.ram1\[6\]\.rc\.mem
*1106 ram16\[4\]\.rb\.ram1\[6\]\.rc\.rd
*1107 ram16\[4\]\.rb\.ram1\[7\]\.rc\.mem
*1108 ram16\[4\]\.rb\.ram1\[7\]\.rc\.rd
*1109 ram16\[5\]\.rb\.ram1\[0\]\.rc\.mem
*1110 ram16\[5\]\.rb\.ram1\[0\]\.rc\.rd
*1111 ram16\[5\]\.rb\.ram1\[1\]\.rc\.mem
*1112 ram16\[5\]\.rb\.ram1\[1\]\.rc\.rd
*1113 ram16\[5\]\.rb\.ram1\[2\]\.rc\.mem
*1114 ram16\[5\]\.rb\.ram1\[2\]\.rc\.rd
*1115 ram16\[5\]\.rb\.ram1\[3\]\.rc\.mem
*1116 ram16\[5\]\.rb\.ram1\[3\]\.rc\.rd
*1117 ram16\[5\]\.rb\.ram1\[4\]\.rc\.mem
*1118 ram16\[5\]\.rb\.ram1\[4\]\.rc\.rd
*1119 ram16\[5\]\.rb\.ram1\[5\]\.rc\.mem
*1120 ram16\[5\]\.rb\.ram1\[5\]\.rc\.rd
*1121 ram16\[5\]\.rb\.ram1\[6\]\.rc\.mem
*1122 ram16\[5\]\.rb\.ram1\[6\]\.rc\.rd
*1123 ram16\[5\]\.rb\.ram1\[7\]\.rc\.mem
*1124 ram16\[5\]\.rb\.ram1\[7\]\.rc\.rd
*1125 ram16\[6\]\.rb\.ram1\[0\]\.rc\.mem
*1126 ram16\[6\]\.rb\.ram1\[0\]\.rc\.rd
*1127 ram16\[6\]\.rb\.ram1\[1\]\.rc\.mem
*1128 ram16\[6\]\.rb\.ram1\[1\]\.rc\.rd
*1129 ram16\[6\]\.rb\.ram1\[2\]\.rc\.mem
*1130 ram16\[6\]\.rb\.ram1\[2\]\.rc\.rd
*1131 ram16\[6\]\.rb\.ram1\[3\]\.rc\.mem
*1132 ram16\[6\]\.rb\.ram1\[3\]\.rc\.rd
*1133 ram16\[6\]\.rb\.ram1\[4\]\.rc\.mem
*1134 ram16\[6\]\.rb\.ram1\[4\]\.rc\.rd
*1135 ram16\[6\]\.rb\.ram1\[5\]\.rc\.mem
*1136 ram16\[6\]\.rb\.ram1\[5\]\.rc\.rd
*1137 ram16\[6\]\.rb\.ram1\[6\]\.rc\.mem
*1138 ram16\[6\]\.rb\.ram1\[6\]\.rc\.rd
*1139 ram16\[6\]\.rb\.ram1\[7\]\.rc\.mem
*1140 ram16\[6\]\.rb\.ram1\[7\]\.rc\.rd
*1141 ram16\[7\]\.rb\.ram1\[0\]\.rc\.mem
*1142 ram16\[7\]\.rb\.ram1\[0\]\.rc\.rd
*1143 ram16\[7\]\.rb\.ram1\[1\]\.rc\.mem
*1144 ram16\[7\]\.rb\.ram1\[1\]\.rc\.rd
*1145 ram16\[7\]\.rb\.ram1\[2\]\.rc\.mem
*1146 ram16\[7\]\.rb\.ram1\[2\]\.rc\.rd
*1147 ram16\[7\]\.rb\.ram1\[3\]\.rc\.mem
*1148 ram16\[7\]\.rb\.ram1\[3\]\.rc\.rd
*1149 ram16\[7\]\.rb\.ram1\[4\]\.rc\.mem
*1150 ram16\[7\]\.rb\.ram1\[4\]\.rc\.rd
*1151 ram16\[7\]\.rb\.ram1\[5\]\.rc\.mem
*1152 ram16\[7\]\.rb\.ram1\[5\]\.rc\.rd
*1153 ram16\[7\]\.rb\.ram1\[6\]\.rc\.mem
*1154 ram16\[7\]\.rb\.ram1\[6\]\.rc\.rd
*1155 ram16\[7\]\.rb\.ram1\[7\]\.rc\.mem
*1156 ram16\[7\]\.rb\.ram1\[7\]\.rc\.rd
*1157 ram16\[8\]\.rb\.ram1\[0\]\.rc\.mem
*1158 ram16\[8\]\.rb\.ram1\[0\]\.rc\.rd
*1159 ram16\[8\]\.rb\.ram1\[1\]\.rc\.mem
*1160 ram16\[8\]\.rb\.ram1\[1\]\.rc\.rd
*1161 ram16\[8\]\.rb\.ram1\[2\]\.rc\.mem
*1162 ram16\[8\]\.rb\.ram1\[2\]\.rc\.rd
*1163 ram16\[8\]\.rb\.ram1\[3\]\.rc\.mem
*1164 ram16\[8\]\.rb\.ram1\[3\]\.rc\.rd
*1165 ram16\[8\]\.rb\.ram1\[4\]\.rc\.mem
*1166 ram16\[8\]\.rb\.ram1\[4\]\.rc\.rd
*1167 ram16\[8\]\.rb\.ram1\[5\]\.rc\.mem
*1168 ram16\[8\]\.rb\.ram1\[5\]\.rc\.rd
*1169 ram16\[8\]\.rb\.ram1\[6\]\.rc\.mem
*1170 ram16\[8\]\.rb\.ram1\[6\]\.rc\.rd
*1171 ram16\[8\]\.rb\.ram1\[7\]\.rc\.mem
*1172 ram16\[8\]\.rb\.ram1\[7\]\.rc\.rd
*1173 ram16\[9\]\.rb\.ram1\[0\]\.rc\.mem
*1174 ram16\[9\]\.rb\.ram1\[0\]\.rc\.rd
*1175 ram16\[9\]\.rb\.ram1\[1\]\.rc\.mem
*1176 ram16\[9\]\.rb\.ram1\[1\]\.rc\.rd
*1177 ram16\[9\]\.rb\.ram1\[2\]\.rc\.mem
*1178 ram16\[9\]\.rb\.ram1\[2\]\.rc\.rd
*1179 ram16\[9\]\.rb\.ram1\[3\]\.rc\.mem
*1180 ram16\[9\]\.rb\.ram1\[3\]\.rc\.rd
*1181 ram16\[9\]\.rb\.ram1\[4\]\.rc\.mem
*1182 ram16\[9\]\.rb\.ram1\[4\]\.rc\.rd
*1183 ram16\[9\]\.rb\.ram1\[5\]\.rc\.mem
*1184 ram16\[9\]\.rb\.ram1\[5\]\.rc\.rd
*1185 ram16\[9\]\.rb\.ram1\[6\]\.rc\.mem
*1186 ram16\[9\]\.rb\.ram1\[6\]\.rc\.rd
*1187 ram16\[9\]\.rb\.ram1\[7\]\.rc\.mem
*1188 ram16\[9\]\.rb\.ram1\[7\]\.rc\.rd
*1189 ANTENNA__0831__I
*1190 ANTENNA__0834__I
*1191 ANTENNA__0836__I
*1192 ANTENNA__0838__I
*1193 ANTENNA__0839__I0
*1194 ANTENNA__0839__S0
*1195 ANTENNA__0839__S1
*1196 ANTENNA__0840__A1
*1197 ANTENNA__0840__A2
*1198 ANTENNA__0841__I
*1199 ANTENNA__0842__I
*1200 ANTENNA__0843__I
*1201 ANTENNA__0845__I
*1202 ANTENNA__0846__I
*1203 ANTENNA__0847__I1
*1204 ANTENNA__0847__I2
*1205 ANTENNA__0847__S0
*1206 ANTENNA__0847__S1
*1207 ANTENNA__0848__I
*1208 ANTENNA__0849__I
*1209 ANTENNA__0850__I
*1210 ANTENNA__0851__B
*1211 ANTENNA__0852__I
*1212 ANTENNA__0853__I
*1213 ANTENNA__0854__I
*1214 ANTENNA__0856__I
*1215 ANTENNA__0857__I2
*1216 ANTENNA__0857__S0
*1217 ANTENNA__0857__S1
*1218 ANTENNA__0858__A1
*1219 ANTENNA__0858__A2
*1220 ANTENNA__0860__I
*1221 ANTENNA__0861__I
*1222 ANTENNA__0862__I
*1223 ANTENNA__0863__I0
*1224 ANTENNA__0863__I1
*1225 ANTENNA__0863__I3
*1226 ANTENNA__0863__S0
*1227 ANTENNA__0863__S1
*1228 ANTENNA__0864__I
*1229 ANTENNA__0866__I
*1230 ANTENNA__0867__A1
*1231 ANTENNA__0869__I0
*1232 ANTENNA__0869__S0
*1233 ANTENNA__0869__S1
*1234 ANTENNA__0870__A1
*1235 ANTENNA__0870__A2
*1236 ANTENNA__0871__I1
*1237 ANTENNA__0871__I2
*1238 ANTENNA__0871__S0
*1239 ANTENNA__0871__S1
*1240 ANTENNA__0872__B
*1241 ANTENNA__0873__I1
*1242 ANTENNA__0873__I2
*1243 ANTENNA__0873__S0
*1244 ANTENNA__0873__S1
*1245 ANTENNA__0874__A1
*1246 ANTENNA__0874__A2
*1247 ANTENNA__0875__I0
*1248 ANTENNA__0875__I1
*1249 ANTENNA__0875__I3
*1250 ANTENNA__0875__S0
*1251 ANTENNA__0875__S1
*1252 ANTENNA__0876__A1
*1253 ANTENNA__0879__I
*1254 ANTENNA__0880__I0
*1255 ANTENNA__0880__S0
*1256 ANTENNA__0880__S1
*1257 ANTENNA__0881__A1
*1258 ANTENNA__0881__A2
*1259 ANTENNA__0883__I1
*1260 ANTENNA__0883__I2
*1261 ANTENNA__0883__S0
*1262 ANTENNA__0883__S1
*1263 ANTENNA__0884__B
*1264 ANTENNA__0885__I0
*1265 ANTENNA__0885__I3
*1266 ANTENNA__0885__S0
*1267 ANTENNA__0885__S1
*1268 ANTENNA__0886__A1
*1269 ANTENNA__0886__A2
*1270 ANTENNA__0887__I
*1271 ANTENNA__0888__I
*1272 ANTENNA__0889__I1
*1273 ANTENNA__0889__I2
*1274 ANTENNA__0889__I3
*1275 ANTENNA__0889__S0
*1276 ANTENNA__0889__S1
*1277 ANTENNA__0890__A1
*1278 ANTENNA__0892__S0
*1279 ANTENNA__0892__S1
*1280 ANTENNA__0893__A1
*1281 ANTENNA__0893__A2
*1282 ANTENNA__0894__I1
*1283 ANTENNA__0894__I2
*1284 ANTENNA__0894__S0
*1285 ANTENNA__0894__S1
*1286 ANTENNA__0895__B
*1287 ANTENNA__0896__I0
*1288 ANTENNA__0896__I1
*1289 ANTENNA__0896__I2
*1290 ANTENNA__0896__S0
*1291 ANTENNA__0896__S1
*1292 ANTENNA__0897__A1
*1293 ANTENNA__0897__A2
*1294 ANTENNA__0899__I0
*1295 ANTENNA__0899__I1
*1296 ANTENNA__0899__I3
*1297 ANTENNA__0899__S0
*1298 ANTENNA__0899__S1
*1299 ANTENNA__0900__A1
*1300 ANTENNA__0902__I
*1301 ANTENNA__0903__I0
*1302 ANTENNA__0903__S0
*1303 ANTENNA__0903__S1
*1304 ANTENNA__0904__A1
*1305 ANTENNA__0904__A2
*1306 ANTENNA__0905__I
*1307 ANTENNA__0906__I
*1308 ANTENNA__0907__I1
*1309 ANTENNA__0907__I2
*1310 ANTENNA__0907__S0
*1311 ANTENNA__0907__S1
*1312 ANTENNA__0908__I
*1313 ANTENNA__0909__A1
*1314 ANTENNA__0909__B
*1315 ANTENNA__0910__I
*1316 ANTENNA__0911__I
*1317 ANTENNA__0912__I0
*1318 ANTENNA__0912__I3
*1319 ANTENNA__0912__S0
*1320 ANTENNA__0912__S1
*1321 ANTENNA__0913__A1
*1322 ANTENNA__0913__A2
*1323 ANTENNA__0914__I
*1324 ANTENNA__0915__I1
*1325 ANTENNA__0915__I2
*1326 ANTENNA__0915__I3
*1327 ANTENNA__0915__S0
*1328 ANTENNA__0916__I
*1329 ANTENNA__0917__A1
*1330 ANTENNA__0919__I1
*1331 ANTENNA__0919__S0
*1332 ANTENNA__0919__S1
*1333 ANTENNA__0920__A1
*1334 ANTENNA__0920__A2
*1335 ANTENNA__0921__I2
*1336 ANTENNA__0921__S0
*1337 ANTENNA__0921__S1
*1338 ANTENNA__0922__A1
*1339 ANTENNA__0922__B
*1340 ANTENNA__0923__I0
*1341 ANTENNA__0923__I1
*1342 ANTENNA__0923__I2
*1343 ANTENNA__0923__S0
*1344 ANTENNA__0923__S1
*1345 ANTENNA__0924__A1
*1346 ANTENNA__0924__A2
*1347 ANTENNA__0925__I0
*1348 ANTENNA__0925__I1
*1349 ANTENNA__0925__I3
*1350 ANTENNA__0925__S0
*1351 ANTENNA__0926__A1
*1352 ANTENNA__0928__I0
*1353 ANTENNA__0928__S0
*1354 ANTENNA__0928__S1
*1355 ANTENNA__0929__A1
*1356 ANTENNA__0929__A2
*1357 ANTENNA__0930__I
*1358 ANTENNA__0931__I
*1359 ANTENNA__0932__I2
*1360 ANTENNA__0932__S0
*1361 ANTENNA__0932__S1
*1362 ANTENNA__0933__A1
*1363 ANTENNA__0933__B
*1364 ANTENNA__0934__I1
*1365 ANTENNA__0934__I2
*1366 ANTENNA__0934__S0
*1367 ANTENNA__0934__S1
*1368 ANTENNA__0935__A1
*1369 ANTENNA__0935__A2
*1370 ANTENNA__0936__I0
*1371 ANTENNA__0936__I1
*1372 ANTENNA__0936__I3
*1373 ANTENNA__0936__S0
*1374 ANTENNA__0937__A1
*1375 ANTENNA__0939__S0
*1376 ANTENNA__0939__S1
*1377 ANTENNA__0940__A1
*1378 ANTENNA__0940__A2
*1379 ANTENNA__0941__I1
*1380 ANTENNA__0941__I2
*1381 ANTENNA__0941__S0
*1382 ANTENNA__0941__S1
*1383 ANTENNA__0942__A1
*1384 ANTENNA__0942__B
*1385 ANTENNA__0943__I0
*1386 ANTENNA__0943__I1
*1387 ANTENNA__0943__I2
*1388 ANTENNA__0943__S0
*1389 ANTENNA__0943__S1
*1390 ANTENNA__0944__A1
*1391 ANTENNA__0944__A2
*1392 ANTENNA__0945__I0
*1393 ANTENNA__0945__I1
*1394 ANTENNA__0945__S0
*1395 ANTENNA__0946__A1
*1396 ANTENNA__0948__I
*1397 ANTENNA__0949__I
*1398 ANTENNA__0950__A1
*1399 ANTENNA__0951__I
*1400 ANTENNA__0953__A1
*1401 ANTENNA__0955__I
*1402 ANTENNA__0956__I0
*1403 ANTENNA__0956__S
*1404 ANTENNA__0958__S
*1405 ANTENNA__0960__I
*1406 ANTENNA__0961__I0
*1407 ANTENNA__0961__S
*1408 ANTENNA__0963__S
*1409 ANTENNA__0965__I
*1410 ANTENNA__0966__I
*1411 ANTENNA__0967__I0
*1412 ANTENNA__0967__S
*1413 ANTENNA__0969__S
*1414 ANTENNA__0971__I
*1415 ANTENNA__0972__I0
*1416 ANTENNA__0972__S
*1417 ANTENNA__0974__I0
*1418 ANTENNA__0974__S
*1419 ANTENNA__0976__I
*1420 ANTENNA__0977__I
*1421 ANTENNA__0978__I0
*1422 ANTENNA__0978__S
*1423 ANTENNA__0980__S
*1424 ANTENNA__0982__I
*1425 ANTENNA__0983__I0
*1426 ANTENNA__0983__S
*1427 ANTENNA__0985__I0
*1428 ANTENNA__0985__S
*1429 ANTENNA__0987__I
*1430 ANTENNA__0988__I
*1431 ANTENNA__0989__I0
*1432 ANTENNA__0989__S
*1433 ANTENNA__0991__S
*1434 ANTENNA__0993__I0
*1435 ANTENNA__0993__S
*1436 ANTENNA__0995__I
*1437 ANTENNA__0996__I
*1438 ANTENNA__0997__A1
*1439 ANTENNA__0997__A2
*1440 ANTENNA__0997__A3
*1441 ANTENNA__0998__I
*1442 ANTENNA__0999__I0
*1443 ANTENNA__0999__S
*1444 ANTENNA__1001__S
*1445 ANTENNA__1003__I
*1446 ANTENNA__1004__S
*1447 ANTENNA__1006__I0
*1448 ANTENNA__1006__S
*1449 ANTENNA__1008__I
*1450 ANTENNA__1009__I
*1451 ANTENNA__1010__I0
*1452 ANTENNA__1010__S
*1453 ANTENNA__1012__I0
*1454 ANTENNA__1012__S
*1455 ANTENNA__1014__I
*1456 ANTENNA__1015__I0
*1457 ANTENNA__1015__S
*1458 ANTENNA__1017__I0
*1459 ANTENNA__1017__S
*1460 ANTENNA__1019__I
*1461 ANTENNA__1020__I
*1462 ANTENNA__1021__I0
*1463 ANTENNA__1021__S
*1464 ANTENNA__1023__I0
*1465 ANTENNA__1023__S
*1466 ANTENNA__1025__I
*1467 ANTENNA__1026__I0
*1468 ANTENNA__1026__S
*1469 ANTENNA__1028__I0
*1470 ANTENNA__1028__S
*1471 ANTENNA__1030__I
*1472 ANTENNA__1031__I
*1473 ANTENNA__1032__I0
*1474 ANTENNA__1032__S
*1475 ANTENNA__1034__I0
*1476 ANTENNA__1034__S
*1477 ANTENNA__1036__I
*1478 ANTENNA__1037__A1
*1479 ANTENNA__1038__A2
*1480 ANTENNA__1039__I
*1481 ANTENNA__1040__A1
*1482 ANTENNA__1041__I
*1483 ANTENNA__1042__A1
*1484 ANTENNA__1042__A2
*1485 ANTENNA__1043__A1
*1486 ANTENNA__1043__A2
*1487 ANTENNA__1044__I
*1488 ANTENNA__1045__A2
*1489 ANTENNA__1047__I0
*1490 ANTENNA__1047__S
*1491 ANTENNA__1049__I
*1492 ANTENNA__1050__A1
*1493 ANTENNA__1050__A3
*1494 ANTENNA__1051__I
*1495 ANTENNA__1052__I0
*1496 ANTENNA__1052__S
*1497 ANTENNA__1054__I0
*1498 ANTENNA__1054__S
*1499 ANTENNA__1056__S
*1500 ANTENNA__1058__I0
*1501 ANTENNA__1058__S
*1502 ANTENNA__1060__I
*1503 ANTENNA__1061__I0
*1504 ANTENNA__1061__S
*1505 ANTENNA__1063__I0
*1506 ANTENNA__1063__S